Program Version,EnergyPlus, Version 8.4.0-09f5359d8a, YMD=2018.01.10 16:16
! <Version>, Version ID
 Version, 8.4
! <Timesteps per Hour>, #TimeSteps, Minutes per TimeStep {minutes}
 Timesteps per Hour,  4, 15
! <System Convergence Limits>, Minimum System TimeStep {minutes}, Max HVAC Iterations, Minimum Plant Iterations, Maximum Plant Iterations
 System Convergence Limits, 2, 25, 2, 8
! <Simulation Control>, Do Zone Sizing, Do System Sizing, Do Plant Sizing, Do Design Days, Do Weather Simulation, Do HVAC Sizing Simulation
 Simulation Control, Yes, Yes, Yes, No, Yes, No
! <Output Reporting Tolerances>, Tolerance for Time Heating Setpoint Not Met, Tolerance for Zone Cooling Setpoint Not Met Time
 Output Reporting Tolerances, 0.200, 0.200, 
! <Site:GroundTemperature:BuildingSurface>, Months From Jan to Dec {C}
 Site:GroundTemperature:BuildingSurface,  19.53,  19.50,  19.54,  19.60,  20.00,  21.64,  22.23,  22.38,  21.45,  20.12,  19.80,  19.63
! <Site:GroundTemperature:FCfactorMethod>, Months From Jan to Dec {C}
 Site:GroundTemperature:FCfactorMethod,  -1.89,  -3.06,  -0.99,   2.23,  10.68,  17.20,  21.60,  22.94,  20.66,  15.60,   8.83,   2.56
! <Site:GroundTemperature:Shallow>, Months From Jan to Dec {C}
 Site:GroundTemperature:Shallow,  13.00,  13.00,  13.00,  13.00,  13.00,  13.00,  13.00,  13.00,  13.00,  13.00,  13.00,  13.00
! <Site:GroundTemperature:Deep>, Months From Jan to Dec {C}
 Site:GroundTemperature:Deep,  16.00,  16.00,  16.00,  16.00,  16.00,  16.00,  16.00,  16.00,  16.00,  16.00,  16.00,  16.00
! <Site:GroundReflectance>, Months From Jan to Dec {dimensionless}
 Site:GroundReflectance,  0.20,  0.20,  0.20,  0.20,  0.20,  0.20,  0.20,  0.20,  0.20,  0.20,  0.20,  0.20
! <Site:GroundReflectance:SnowModifier>, Normal, Daylighting {dimensionless}
 Site:GroundReflectance:SnowModifier,   1.000,   1.000
! <Site:GroundReflectance:Snow>, Months From Jan to Dec {dimensionless}
 Site:GroundReflectance:Snow,  0.20,  0.20,  0.20,  0.20,  0.20,  0.20,  0.20,  0.20,  0.20,  0.20,  0.20,  0.20
! <Site:GroundReflectance:Snow:Daylighting>, Months From Jan to Dec {dimensionless}
 Site:GroundReflectance:Snow:Daylighting,  0.20,  0.20,  0.20,  0.20,  0.20,  0.20,  0.20,  0.20,  0.20,  0.20,  0.20,  0.20
! <Environment:Weather Station>,Wind Sensor Height Above Ground {m},Wind Speed Profile Exponent {},Wind Speed Profile Boundary Layer Thickness {m},Air Temperature Sensor Height Above Ground {m},Wind Speed Modifier Coefficient [Internal],Temperature Modifier Coefficient [Internal]
Environment:Weather Station,10.000,0.140,270.000,1.500,1.586,9.750E-003
! <Site:Location>, Location Name, Latitude {N+/S- Deg}, Longitude {E+/W- Deg},  Time Zone Number {GMT+/-}, Elevation {m},  Standard Pressure at Elevation {Pa}, Standard RhoAir at Elevation
Site:Location,Chicago Ohare Intl Ap IL USA TMY3 WMO#=725300,41.98,-87.92,-6.00,201.00,98934,1.1759
! <Building Information>, Building Name,North Axis {deg},Terrain,  Loads Convergence Tolerance Value,Temperature Convergence Tolerance Value,  Solar Distribution,Maximum Number of Warmup Days,Minimum Number of Warmup Days
 Building Information,Ref Bldg Large Hotel New2004_v1.3_5.0,0.000,City,4.00000E-002,0.20000,FullInteriorAndExterior,25,6
! <Inside Convection Algorithm>, Algorithm {Simple | TARP | CeilingDiffuser | AdaptiveConvectionAlgorithm}
Inside Convection Algorithm,TARP
! <Outside Convection Algorithm>, Algorithm {SimpleCombined | TARP | MoWitt | DOE-2 | AdaptiveConvectionAlgorithm}
Outside Convection Algorithm,DOE-2
! <Sky Radiance Distribution>, Value {Anisotropic}
Sky Radiance Distribution,Anisotropic
! <Zone Air Solution Algorithm>, Value {ThirdOrderBackwardDifference | AnalyticalSolution | EulerMethod}
 Zone Air Solution Algorithm, AnalyticalSolution
! <Zone Air Carbon Dioxide Balance Simulation>, Simulation {Yes/No}, Carbon Dioxide Concentration
 Zone Air Carbon Dioxide Balance Simulation, No,N/A
! <Zone Air Generic Contaminant Balance Simulation>, Simulation {Yes/No}, Generic Contaminant Concentration
 Zone Air Generic Contaminant Balance Simulation, No,N/A
! <Zone Air Mass Flow Balance Simulation>, Enforce Mass Balance, Adjust Zone Mixing, Adjust Zone Infiltration {AddInfiltration | AdjustInfiltration | None}, Infiltration Zones {MixingSourceZonesOnly | AllZones}
 Zone Air Mass Flow Balance Simulation, No,N/A,N/A,N/A
! <Environment:Site Atmospheric Variation>,Wind Speed Profile Exponent {},Wind Speed Profile Boundary Layer Thickness {m},Air Temperature Gradient Coefficient {K/m}
Environment:Site Atmospheric Variation,0.330,460.000,6.500000E-003
! <SurfaceGeometry>,Starting Corner,Vertex Input Direction,Coordinate System,Daylight Reference Point Coordinate System,Rectangular (Simple) Surface Coordinate System
 Surface Geometry,UpperLeftCorner,Counterclockwise,RelativeCoordinateSystem,RelativeCoordinateSystem,RelativeToZoneOrigin
! <Surface Heat Transfer Algorithm>, Value {CTF - ConductionTransferFunction | EMPD - MoisturePenetrationDepthConductionTransferFunction | CondFD - ConductionFiniteDifference | HAMT - CombinedHeatAndMoistureFiniteElement} - Description,Inside Surface Max Temperature Limit{C}, Surface Convection Coefficient Lower Limit {W/m2-K}, Surface Convection Coefficient Upper Limit {W/m2-K}
Surface Heat Transfer Algorithm, CTF - ConductionTransferFunction,200,0.10,1000.0
! <Shading Summary>, Number of Fixed Detached Shades, Number of Building Detached Shades, Number of Attached Shades
 Shading Summary,0,2,0
! <Zone Summary>, Number of Zones, Number of Zone Surfaces, Number of SubSurfaces
 Zone Summary,22,229,30
! <Zone Information>,Zone Name,North Axis {deg},Origin X-Coordinate {m},Origin Y-Coordinate {m},Origin Z-Coordinate {m},Centroid X-Coordinate {m},Centroid Y-Coordinate {m},Centroid Z-Coordinate {m},Type,Zone Multiplier,Zone List Multiplier,Minimum X {m},Maximum X {m},Minimum Y {m},Maximum Y {m},Minimum Z {m},Maximum Z {m},Ceiling Height {m},Volume {m3},Zone Inside Convection Algorithm {Simple-Detailed-CeilingDiffuser-TrombeWall},Zone Outside Convection Algorithm {Simple-Detailed-Tarp-MoWitt-DOE-2-BLAST}, Floor Area {m2},Exterior Gross Wall Area {m2},Exterior Net Wall Area {m2},Exterior Window Area {m2}, Number of Surfaces, Number of SubSurfaces, Number of Shading SubSurfaces,  Part of Total Building Area
 Zone Information, BANQUET_FLR_6,0.0,0.00,0.00,0.00,26.37,17.68,17.68,1,1,1,10.36,42.37,12.50,22.86,16.15,19.20,3.05,1010.89,TARP,DOE-2,331.66,97.55,65.34,32.21,6,1,0,Yes
 Zone Information, BASEMENT,0.0,0.00,0.00,0.00,41.45,11.51,-1.22,1,1,1,0.00,86.56,0.00,22.86,-2.44,0.00,2.44,4826.37,TARP,DOE-2,1978.83,0.00,0.00,0.00,13,0,0,Yes
 Zone Information, CAFE_FLR_1,0.0,0.00,0.00,0.00,70.26,2.90,1.98,1,1,1,53.95,86.56,0.00,5.79,0.00,3.96,3.96,748.35,TARP,DOE-2,188.86,152.17,86.55,65.62,7,1,0,Yes
 Zone Information, CORRIDOR_FLR_3,0.0,0.00,0.00,0.00,43.28,14.33,8.53,1,4,1,4.57,81.99,5.79,22.86,7.01,10.06,3.05,1186.91,TARP,DOE-2,389.40,48.31,32.37,15.94,20,4,0,Yes
 Zone Information, CORRIDOR_FLR_6,0.0,0.00,0.00,0.00,41.51,13.35,17.68,1,1,1,4.57,81.99,5.79,22.86,16.15,19.20,3.05,1256.16,TARP,DOE-2,412.12,85.47,57.25,28.22,15,3,0,Yes
 Zone Information, DINING_FLR_6,0.0,0.00,0.00,0.00,63.55,17.68,17.68,1,1,1,47.55,79.55,12.50,22.86,16.15,19.20,3.05,1010.89,TARP,DOE-2,331.66,97.55,65.34,32.21,6,1,0,Yes
 Zone Information, KITCHEN_FLR_6,0.0,0.00,0.00,0.00,82.99,14.11,17.68,1,1,1,79.55,86.56,5.79,22.86,16.15,19.20,3.05,314.87,TARP,DOE-2,103.30,87.33,60.95,26.38,8,3,0,Yes
 Zone Information, LAUNDRY_FLR_1,0.0,0.00,0.00,0.00,84.28,14.33,1.98,1,1,1,81.99,86.56,5.79,22.86,0.00,3.96,3.96,309.22,TARP,DOE-2,78.04,85.75,85.75,0.00,6,0,0,Yes
 Zone Information, LOBBY_FLR_1,0.0,0.00,0.00,0.00,38.29,12.45,1.98,1,1,1,0.00,81.99,0.00,22.86,0.00,3.96,3.96,5183.56,TARP,DOE-2,1308.19,434.79,349.55,85.24,18,1,0,Yes
 Zone Information, MECH_FLR_1,0.0,0.00,0.00,0.00,61.87,17.68,1.98,1,1,1,53.95,69.80,12.50,22.86,0.00,3.96,3.96,650.80,TARP,DOE-2,164.24,62.80,62.80,0.00,6,0,0,Yes
 Zone Information, RETAIL_1_FLR_1,0.0,0.00,0.00,0.00,5.79,2.90,1.98,1,1,1,0.00,11.58,0.00,5.79,0.00,3.96,3.96,265.76,TARP,DOE-2,67.07,68.84,45.54,23.30,6,1,0,Yes
 Zone Information, RETAIL_2_FLR_1,0.0,0.00,0.00,0.00,5.79,9.14,1.98,1,1,1,0.00,11.58,5.79,12.50,0.00,3.96,3.96,307.76,TARP,DOE-2,77.67,26.57,26.57,0.00,6,0,0,Yes
 Zone Information, ROOM_1_FLR_3,0.0,0.00,0.00,0.00,2.29,10.06,8.53,1,4,1,0.00,4.57,5.79,14.33,7.01,10.06,3.05,118.94,TARP,DOE-2,39.02,39.95,26.77,13.18,6,2,0,Yes
 Zone Information, ROOM_1_FLR_6,0.0,0.00,0.00,0.00,2.29,10.06,17.68,1,1,1,0.00,4.57,5.79,14.33,16.15,19.20,3.05,118.94,TARP,DOE-2,39.02,39.95,26.76,13.19,6,2,0,Yes
 Zone Information, ROOM_2_FLR_3,0.0,0.00,0.00,0.00,2.29,18.59,8.53,1,4,1,0.00,4.57,14.33,22.86,7.01,10.06,3.05,118.93,TARP,DOE-2,39.02,39.95,26.77,13.18,6,2,0,Yes
 Zone Information, ROOM_2_FLR_6,0.0,0.00,0.00,0.00,2.29,18.59,17.68,1,1,1,0.00,4.57,14.33,22.86,16.15,19.20,3.05,118.93,TARP,DOE-2,39.02,39.95,26.76,13.19,6,2,0,Yes
 Zone Information, ROOM_3_MULT19_FLR_3,0.0,0.00,0.00,0.00,8.53,9.14,8.53,1,76,1,6.71,10.36,5.79,12.50,7.01,10.06,3.05,74.75,TARP,DOE-2,24.52,11.15,7.47,3.68,6,1,0,Yes
 Zone Information, ROOM_3_MULT9_FLR_6,0.0,0.00,0.00,0.00,7.93,7.62,17.68,1,9,1,4.57,11.28,5.79,9.45,16.15,19.20,3.05,74.77,TARP,DOE-2,24.53,20.44,13.69,6.75,6,1,0,Yes
 Zone Information, ROOM_4_MULT19_FLR_3,0.0,0.00,0.00,0.00,12.19,19.51,8.53,1,76,1,10.36,14.02,16.15,22.86,7.01,10.06,3.05,74.77,TARP,DOE-2,24.53,11.15,7.47,3.68,6,1,0,Yes
 Zone Information, ROOM_5_FLR_3,0.0,0.00,0.00,0.00,84.28,10.06,8.53,1,4,1,81.99,86.56,5.79,14.33,7.01,10.06,3.05,118.94,TARP,DOE-2,39.02,39.95,26.77,13.18,6,2,0,Yes
 Zone Information, ROOM_6_FLR_3,0.0,0.00,0.00,0.00,84.28,18.59,8.53,1,4,1,81.99,86.56,14.33,22.86,7.01,10.06,3.05,118.93,TARP,DOE-2,39.02,39.95,26.77,13.18,6,2,0,Yes
 Zone Information, STORAGE_FLR_1,0.0,0.00,0.00,0.00,74.37,17.68,1.98,1,1,1,69.80,78.94,12.50,22.86,0.00,3.96,3.96,375.47,TARP,DOE-2,94.76,36.23,36.23,0.00,6,0,0,Yes
! <Zone Internal Gains/Equipment Information - Nominal>,Zone Name, Floor Area {m2},# Occupants,Area per Occupant {m2/person},Occupant per Area {person/m2},Interior Lighting {W/m2},Electric Load {W/m2},Gas Load {W/m2},Other Load {W/m2},Hot Water Eq {W/m2},Steam Equipment {W/m2},Sum Loads per Area {W/m2},Outdoor Controlled Baseboard Heat
 Zone Internal Gains, BANQUET_FLR_6,331.66,238.6,1.390,0.719,13.990,67.817,0.000,0.000,0.000,0.000,81.807,No
 Zone Internal Gains, BASEMENT,1978.83,53.3,37.160,2.691E-002,10.760,5.380,0.000,0.000,0.000,0.000,16.140,No
 Zone Internal Gains, CAFE_FLR_1,188.86,135.9,1.390,0.719,13.990,5.380,0.000,0.000,0.000,0.000,19.370,No
 Zone Internal Gains, CORRIDOR_FLR_3,389.40,4.2,92.900,1.076E-002,5.380,0.000,0.000,0.000,0.000,0.000,5.380,No
 Zone Internal Gains, CORRIDOR_FLR_6,412.12,4.4,92.900,1.076E-002,5.380,0.000,0.000,0.000,0.000,0.000,5.380,No
 Zone Internal Gains, DINING_FLR_6,331.66,238.6,1.390,0.719,13.990,67.817,0.000,0.000,0.000,0.000,81.807,No
 Zone Internal Gains, KITCHEN_FLR_6,103.30,5.6,18.580,5.382E-002,12.910,514.779,1612.767,0.000,0.000,0.000,2140.456,No
 Zone Internal Gains, LAUNDRY_FLR_1,78.04,3.4,23.230,4.305E-002,6.460,62.789,535.857,0.000,0.000,0.000,605.106,No
 Zone Internal Gains, LOBBY_FLR_1,1308.19,422.0,3.100,0.323,11.840,8.070,0.000,0.000,0.000,0.000,19.910,No
 Zone Internal Gains, MECH_FLR_1,164.24,0.0,N/A,0.000,16.140,5.380,0.000,0.000,0.000,0.000,21.520,No
 Zone Internal Gains, RETAIL_1_FLR_1,67.07,10.8,6.190,0.162,16.140,10.760,0.000,0.000,0.000,0.000,26.900,No
 Zone Internal Gains, RETAIL_2_FLR_1,77.67,12.5,6.190,0.162,16.140,10.760,0.000,0.000,0.000,0.000,26.900,No
 Zone Internal Gains, ROOM_1_FLR_3,39.02,1.5,26.010,3.845E-002,11.840,14.300,0.000,0.000,0.000,0.000,26.140,No
 Zone Internal Gains, ROOM_1_FLR_6,39.02,1.5,26.010,3.845E-002,11.840,14.300,0.000,0.000,0.000,0.000,26.140,No
 Zone Internal Gains, ROOM_2_FLR_3,39.02,1.5,26.010,3.845E-002,11.840,14.300,0.000,0.000,0.000,0.000,26.140,No
 Zone Internal Gains, ROOM_2_FLR_6,39.02,1.5,26.010,3.845E-002,11.840,14.300,0.000,0.000,0.000,0.000,26.140,No
 Zone Internal Gains, ROOM_3_MULT19_FLR_3,24.52,1.5,16.350,6.116E-002,11.840,14.300,0.000,0.000,0.000,0.000,26.140,No
 Zone Internal Gains, ROOM_3_MULT9_FLR_6,24.53,1.5,16.350,6.116E-002,11.840,14.300,0.000,0.000,0.000,0.000,26.140,No
 Zone Internal Gains, ROOM_4_MULT19_FLR_3,24.53,1.5,16.350,6.116E-002,11.840,14.300,0.000,0.000,0.000,0.000,26.140,No
 Zone Internal Gains, ROOM_5_FLR_3,39.02,1.5,26.010,3.845E-002,11.840,14.300,0.000,0.000,0.000,0.000,26.140,No
 Zone Internal Gains, ROOM_6_FLR_3,39.02,1.5,26.010,3.845E-002,11.840,14.300,0.000,0.000,0.000,0.000,26.140,No
 Zone Internal Gains, STORAGE_FLR_1,94.76,2.0,46.450,2.153E-002,9.680,2.690,0.000,0.000,0.000,0.000,12.370,No
! <People Internal Gains - Nominal>,Name,Schedule Name,Zone Name,Zone Floor Area {m2},# Zone Occupants,Number of People {},People/Floor Area {person/m2},Floor Area per person {m2/person},Fraction Radiant,Fraction Convected,Sensible Fraction Calculation,Activity level,ASHRAE 55 Warnings,Carbon Dioxide Generation Rate,Nominal Minimum Number of People,Nominal Maximum Number of People,MRT Calculation Type,Work Efficiency, Clothing Insulation Calculation Method,Clothing Insulation Calculation Method Schedule,Clothing,Air Velocity,Fanger Calculation,Pierce Calculation,KSU Calculation
 People Internal Gains, BANQUET_FLR_6 PEOPLE,BLDG_OCC_SCH,BANQUET_FLR_6,331.66,238.6,238.6,0.719,1.390,0.300,0.700,AutoCalculate,ACTIVITY_SCH,No,3.8200E-008,0,239,Zone Averaged,WORK_EFF_SCH,Clothing Insulation Schedule,N/A,CLOTHING_SCH,AIR_VELO_SCH,Yes,No,No
 People Internal Gains, BASEMENT PEOPLE,BLDG_OCC_SCH,BASEMENT,1978.83,53.3,53.3,2.691E-002,37.160,0.300,0.700,AutoCalculate,ACTIVITY_SCH,No,3.8200E-008,0,53,Zone Averaged,WORK_EFF_SCH,Clothing Insulation Schedule,N/A,CLOTHING_SCH,AIR_VELO_SCH,Yes,No,No
 People Internal Gains, CAFE_FLR_1 PEOPLE,BLDG_OCC_SCH,CAFE_FLR_1,188.86,135.9,135.9,0.719,1.390,0.300,0.700,AutoCalculate,ACTIVITY_SCH,No,3.8200E-008,0,136,Zone Averaged,WORK_EFF_SCH,Clothing Insulation Schedule,N/A,CLOTHING_SCH,AIR_VELO_SCH,Yes,No,No
 People Internal Gains, CORRIDOR_FLR_3 PEOPLE,BLDG_OCC_SCH,CORRIDOR_FLR_3,389.40,4.2,4.2,1.076E-002,92.900,0.300,0.700,AutoCalculate,ACTIVITY_SCH,No,3.8200E-008,0,4,Zone Averaged,WORK_EFF_SCH,Clothing Insulation Schedule,N/A,CLOTHING_SCH,AIR_VELO_SCH,Yes,No,No
 People Internal Gains, CORRIDOR_FLR_6 PEOPLE,BLDG_OCC_SCH,CORRIDOR_FLR_6,412.12,4.4,4.4,1.076E-002,92.900,0.300,0.700,AutoCalculate,ACTIVITY_SCH,No,3.8200E-008,0,4,Zone Averaged,WORK_EFF_SCH,Clothing Insulation Schedule,N/A,CLOTHING_SCH,AIR_VELO_SCH,Yes,No,No
 People Internal Gains, DINING_FLR_6 PEOPLE,BLDG_OCC_SCH,DINING_FLR_6,331.66,238.6,238.6,0.719,1.390,0.300,0.700,AutoCalculate,ACTIVITY_SCH,No,3.8200E-008,0,239,Zone Averaged,WORK_EFF_SCH,Clothing Insulation Schedule,N/A,CLOTHING_SCH,AIR_VELO_SCH,Yes,No,No
 People Internal Gains, KITCHEN_FLR_6 PEOPLE,BLDG_OCC_SCH,KITCHEN_FLR_6,103.30,5.6,5.6,5.382E-002,18.580,0.300,0.700,AutoCalculate,ACTIVITY_SCH,No,3.8200E-008,0,6,Zone Averaged,WORK_EFF_SCH,Clothing Insulation Schedule,N/A,CLOTHING_SCH,AIR_VELO_SCH,Yes,No,No
 People Internal Gains, LAUNDRY_FLR_1 PEOPLE,BLDG_OCC_SCH,LAUNDRY_FLR_1,78.04,3.4,3.4,4.305E-002,23.230,0.300,0.700,AutoCalculate,ACTIVITY_SCH,No,3.8200E-008,0,3,Zone Averaged,WORK_EFF_SCH,Clothing Insulation Schedule,N/A,CLOTHING_SCH,AIR_VELO_SCH,Yes,No,No
 People Internal Gains, LOBBY_FLR_1 PEOPLE,LOBBY_OCC_SCH,LOBBY_FLR_1,1308.19,422.0,422.0,0.323,3.100,0.300,0.700,AutoCalculate,ACTIVITY_SCH,No,3.8200E-008,0,422,Zone Averaged,WORK_EFF_SCH,Clothing Insulation Schedule,N/A,CLOTHING_SCH,AIR_VELO_SCH,Yes,No,No
 People Internal Gains, RETAIL_1_FLR_1 PEOPLE,BLDG_OCC_SCH,RETAIL_1_FLR_1,67.07,10.8,10.8,0.162,6.190,0.300,0.700,AutoCalculate,ACTIVITY_SCH,No,3.8200E-008,0,11,Zone Averaged,WORK_EFF_SCH,Clothing Insulation Schedule,N/A,CLOTHING_SCH,AIR_VELO_SCH,Yes,No,No
 People Internal Gains, RETAIL_2_FLR_1 PEOPLE,BLDG_OCC_SCH,RETAIL_2_FLR_1,77.67,12.5,12.5,0.162,6.190,0.300,0.700,AutoCalculate,ACTIVITY_SCH,No,3.8200E-008,0,13,Zone Averaged,WORK_EFF_SCH,Clothing Insulation Schedule,N/A,CLOTHING_SCH,AIR_VELO_SCH,Yes,No,No
 People Internal Gains, ROOM_1_FLR_3 PEOPLE,GUESTROOM_OCC_SCH,ROOM_1_FLR_3,39.02,1.5,1.5,3.845E-002,26.010,0.300,0.700,AutoCalculate,ACTIVITY_SCH,No,3.8200E-008,0,2,Zone Averaged,WORK_EFF_SCH,Clothing Insulation Schedule,N/A,CLOTHING_SCH,AIR_VELO_SCH,Yes,No,No
 People Internal Gains, ROOM_1_FLR_6 PEOPLE,GUESTROOM_OCC_SCH,ROOM_1_FLR_6,39.02,1.5,1.5,3.845E-002,26.010,0.300,0.700,AutoCalculate,ACTIVITY_SCH,No,3.8200E-008,0,2,Zone Averaged,WORK_EFF_SCH,Clothing Insulation Schedule,N/A,CLOTHING_SCH,AIR_VELO_SCH,Yes,No,No
 People Internal Gains, ROOM_2_FLR_3 PEOPLE,GUESTROOM_OCC_SCH,ROOM_2_FLR_3,39.02,1.5,1.5,3.845E-002,26.010,0.300,0.700,AutoCalculate,ACTIVITY_SCH,No,3.8200E-008,0,2,Zone Averaged,WORK_EFF_SCH,Clothing Insulation Schedule,N/A,CLOTHING_SCH,AIR_VELO_SCH,Yes,No,No
 People Internal Gains, ROOM_2_FLR_6 PEOPLE,GUESTROOM_OCC_SCH,ROOM_2_FLR_6,39.02,1.5,1.5,3.845E-002,26.010,0.300,0.700,AutoCalculate,ACTIVITY_SCH,No,3.8200E-008,0,2,Zone Averaged,WORK_EFF_SCH,Clothing Insulation Schedule,N/A,CLOTHING_SCH,AIR_VELO_SCH,Yes,No,No
 People Internal Gains, ROOM_3_MULT19_FLR_3 PEOPLE,GUESTROOM_OCC_SCH,ROOM_3_MULT19_FLR_3,24.52,1.5,1.5,6.116E-002,16.350,0.300,0.700,AutoCalculate,ACTIVITY_SCH,No,3.8200E-008,0,1,Zone Averaged,WORK_EFF_SCH,Clothing Insulation Schedule,N/A,CLOTHING_SCH,AIR_VELO_SCH,Yes,No,No
 People Internal Gains, ROOM_3_MULT9_FLR_6 PEOPLE,GUESTROOM_OCC_SCH,ROOM_3_MULT9_FLR_6,24.53,1.5,1.5,6.116E-002,16.350,0.300,0.700,AutoCalculate,ACTIVITY_SCH,No,3.8200E-008,0,2,Zone Averaged,WORK_EFF_SCH,Clothing Insulation Schedule,N/A,CLOTHING_SCH,AIR_VELO_SCH,Yes,No,No
 People Internal Gains, ROOM_4_MULT19_FLR_3 PEOPLE,GUESTROOM_OCC_SCH,ROOM_4_MULT19_FLR_3,24.53,1.5,1.5,6.116E-002,16.350,0.300,0.700,AutoCalculate,ACTIVITY_SCH,No,3.8200E-008,0,2,Zone Averaged,WORK_EFF_SCH,Clothing Insulation Schedule,N/A,CLOTHING_SCH,AIR_VELO_SCH,Yes,No,No
 People Internal Gains, ROOM_5_FLR_3 PEOPLE,GUESTROOM_OCC_SCH,ROOM_5_FLR_3,39.02,1.5,1.5,3.845E-002,26.010,0.300,0.700,AutoCalculate,ACTIVITY_SCH,No,3.8200E-008,0,2,Zone Averaged,WORK_EFF_SCH,Clothing Insulation Schedule,N/A,CLOTHING_SCH,AIR_VELO_SCH,Yes,No,No
 People Internal Gains, ROOM_6_FLR_3 PEOPLE,GUESTROOM_OCC_SCH,ROOM_6_FLR_3,39.02,1.5,1.5,3.845E-002,26.010,0.300,0.700,AutoCalculate,ACTIVITY_SCH,No,3.8200E-008,0,2,Zone Averaged,WORK_EFF_SCH,Clothing Insulation Schedule,N/A,CLOTHING_SCH,AIR_VELO_SCH,Yes,No,No
 People Internal Gains, STORAGE_FLR_1 PEOPLE,BLDG_OCC_SCH,STORAGE_FLR_1,94.76,2.0,2.0,2.153E-002,46.450,0.300,0.700,AutoCalculate,ACTIVITY_SCH,No,3.8200E-008,0,2,Zone Averaged,WORK_EFF_SCH,Clothing Insulation Schedule,N/A,CLOTHING_SCH,AIR_VELO_SCH,Yes,No,No
! <Lights Internal Gains - Nominal>,Name,Schedule Name,Zone Name,Zone Floor Area {m2},# Zone Occupants,Lighting Level {W},Lights/Floor Area {W/m2},Lights per person {W/person},Fraction Return Air,Fraction Radiant,Fraction Short Wave,Fraction Convected,Fraction Replaceable,End-Use Category,Nominal Minimum Lighting Level {W},Nominal Maximum Lighting Level {W}
 Lights Internal Gains, BANQUET_FLR_6_LIGHTS,BLDG_LIGHT_SCH,BANQUET_FLR_6,331.66,238.6,4639.888,13.990,19.446,0.000,0.700,0.200,0.100,1.000,General,0.000,4639.888
 Lights Internal Gains, BASEMENT_LIGHTS,BLDG_LIGHT_SCH,BASEMENT,1978.83,53.3,21292.213,10.760,399.842,0.000,0.700,0.200,0.100,1.000,General,0.000,21292.213
 Lights Internal Gains, CAFE_FLR_1_LIGHTS,BLDG_LIGHT_SCH,CAFE_FLR_1,188.86,135.9,2642.178,13.990,19.446,0.000,0.700,0.200,0.100,1.000,General,0.000,2642.178
 Lights Internal Gains, CORRIDOR_FLR_3_LIGHTS,BLDG_LIGHT_SCH,CORRIDOR_FLR_3,389.40,4.2,2094.997,5.380,499.802,0.000,0.700,0.200,0.100,1.000,General,0.000,2094.997
 Lights Internal Gains, CORRIDOR_FLR_6_LIGHTS,BLDG_LIGHT_SCH,CORRIDOR_FLR_6,412.12,4.4,2217.231,5.380,499.802,0.000,0.700,0.200,0.100,1.000,General,0.000,2217.231
 Lights Internal Gains, DINING_FLR_6_LIGHTS,BLDG_LIGHT_SCH,DINING_FLR_6,331.66,238.6,4639.888,13.990,19.446,0.000,0.700,0.200,0.100,1.000,General,0.000,4639.888
 Lights Internal Gains, KITCHEN_FLR_6_LIGHTS,BLDG_LIGHT_SCH,KITCHEN_FLR_6,103.30,5.6,1333.661,12.910,239.867,0.000,0.700,0.200,0.100,1.000,General,0.000,1333.661
 Lights Internal Gains, LAUNDRY_FLR_1_LIGHTS,BLDG_LIGHT_SCH,LAUNDRY_FLR_1,78.04,3.4,504.135,6.460,150.066,0.000,0.700,0.200,0.100,1.000,General,0.000,504.135
 Lights Internal Gains, LOBBY_FLR_1_LIGHTS,BLDG_LIGHT_SCH,LOBBY_FLR_1,1308.19,422.0,15488.924,11.840,36.704,0.000,0.700,0.200,0.100,1.000,General,0.000,15488.924
 Lights Internal Gains, MECH_FLR_1_LIGHTS,BLDG_LIGHT_SCH,MECH_FLR_1,164.24,0.0,2650.885,16.140,N/A,0.000,0.700,0.200,0.100,1.000,General,0.000,2650.885
 Lights Internal Gains, RETAIL_1_FLR_1_LIGHTS,BLDG_LIGHT_SCH,RETAIL_1_FLR_1,67.07,10.8,1082.532,16.140,99.907,0.000,0.700,0.200,0.100,1.000,General,0.000,1082.532
 Lights Internal Gains, RETAIL_2_FLR_1_LIGHTS,BLDG_LIGHT_SCH,RETAIL_2_FLR_1,77.67,12.5,1253.576,16.140,99.907,0.000,0.700,0.200,0.100,1.000,General,0.000,1253.576
 Lights Internal Gains, ROOM_1_FLR_3_LIGHTS,GUESTROOM_LTG_SCH_BASE,ROOM_1_FLR_3,39.02,1.5,462.021,11.840,307.958,0.000,0.700,0.200,0.100,1.000,General,0.000,462.021
 Lights Internal Gains, ROOM_1_FLR_6_LIGHTS,GUESTROOM_LTG_SCH_BASE,ROOM_1_FLR_6,39.02,1.5,462.021,11.840,307.958,0.000,0.700,0.200,0.100,1.000,General,0.000,462.021
 Lights Internal Gains, ROOM_2_FLR_3_LIGHTS,GUESTROOM_LTG_SCH_BASE,ROOM_2_FLR_3,39.02,1.5,461.967,11.840,307.958,0.000,0.700,0.200,0.100,1.000,General,0.000,461.967
 Lights Internal Gains, ROOM_2_FLR_6_LIGHTS,GUESTROOM_LTG_SCH_BASE,ROOM_2_FLR_6,39.02,1.5,461.967,11.840,307.958,0.000,0.700,0.200,0.100,1.000,General,0.000,461.967
 Lights Internal Gains, ROOM_3_MULT19_FLR_3_LIGHTS,GUESTROOM_LTG_SCH_BASE,ROOM_3_MULT19_FLR_3,24.52,1.5,290.362,11.840,193.584,0.000,0.700,0.200,0.100,1.000,General,0.000,290.362
 Lights Internal Gains, ROOM_3_MULT9_FLR_6_LIGHTS,GUESTROOM_LTG_SCH_BASE,ROOM_3_MULT9_FLR_6,24.53,1.5,290.442,11.840,193.584,0.000,0.700,0.200,0.100,1.000,General,0.000,290.442
 Lights Internal Gains, ROOM_4_MULT19_FLR_3_LIGHTS,GUESTROOM_LTG_SCH_BASE,ROOM_4_MULT19_FLR_3,24.53,1.5,290.442,11.840,193.584,0.000,0.700,0.200,0.100,1.000,General,0.000,290.442
 Lights Internal Gains, ROOM_5_FLR_3_LIGHTS,GUESTROOM_LTG_SCH_BASE,ROOM_5_FLR_3,39.02,1.5,462.021,11.840,307.958,0.000,0.700,0.200,0.100,1.000,General,0.000,462.021
 Lights Internal Gains, ROOM_6_FLR_3_LIGHTS,GUESTROOM_LTG_SCH_BASE,ROOM_6_FLR_3,39.02,1.5,461.967,11.840,307.958,0.000,0.700,0.200,0.100,1.000,General,0.000,461.967
 Lights Internal Gains, STORAGE_FLR_1_LIGHTS,BLDG_LIGHT_SCH,STORAGE_FLR_1,94.76,2.0,917.270,9.680,449.636,0.000,0.700,0.200,0.100,1.000,General,0.000,917.270
! <ElectricEquipment Internal Gains - Nominal>,Name,Schedule Name,Zone Name,Zone Floor Area {m2},# Zone Occupants,Equipment Level {W},Equipment/Floor Area {W/m2},Equipment per person {W/person},Fraction Latent,Fraction Radiant,Fraction Lost,Fraction Convected,End-Use SubCategory,Nominal Minimum Equipment Level {W},Nominal Maximum Equipment Level {W}
 ElectricEquipment Internal Gains, BANQUET_FLR_6_MISCPLUG_EQUIP,KITCHEN_ELEC_EQUIP_SCH,BANQUET_FLR_6,331.66,238.6,22492.000,67.817,94.266,0.000,0.500,0.000,0.500,MiscPlug,0.000,7872.200
 ElectricEquipment Internal Gains, BASEMENT_MISCPLUG_EQUIP,BLDG_EQUIP_SCH,BASEMENT,1978.83,53.3,10646.106,5.380,199.921,0.000,0.500,0.000,0.500,MiscPlug,0.000,10646.106
 ElectricEquipment Internal Gains, CAFE_FLR_1_MISCPLUG_EQUIP,BLDG_EQUIP_SCH,CAFE_FLR_1,188.86,135.9,1016.077,5.380,7.478,0.000,0.500,0.000,0.500,MiscPlug,0.000,1016.077
 ElectricEquipment Internal Gains, DINING_FLR_6_MISCPLUG_EQUIP,KITCHEN_ELEC_EQUIP_SCH,DINING_FLR_6,331.66,238.6,22492.000,67.817,94.266,0.000,0.500,0.000,0.500,MiscPlug,0.000,7872.200
 ElectricEquipment Internal Gains, KITCHEN_FLR_6_EXHFAN_EQUIP,KITCHEN_EXHAUST_SCH,KITCHEN_FLR_6,103.30,5.6,698.000,6.757,125.540,0.000,0.000,1.000,0.000,KitchenExhFan,0.000,698.000
 ElectricEquipment Internal Gains, KITCHEN_FLR_6_MISCELEC_EQUIP,KITCHEN_ELEC_EQUIP_SCH,KITCHEN_FLR_6,103.30,5.6,52481.000,508.023,9439.029,0.200,0.500,0.100,0.200,MiscElec,0.000,18368.350
 ElectricEquipment Internal Gains, LAUNDRY_FLR_1_MISCPLUG_EQUIP,LAUNDRYROOM_EQP_ELEC_SCH,LAUNDRY_FLR_1,78.04,3.4,4813.000,61.674,1432.685,0.000,0.500,0.000,0.500,MiscPlug,0.000,4813.000
 ElectricEquipment Internal Gains, LAUNDRY_FLR_1_EXHFAN_EQUIP,ALWAYS_ON,LAUNDRY_FLR_1,78.04,3.4,87.000,1.115,25.897,0.000,0.000,1.000,0.000,LaundryExhFan,87.000,87.000
 ElectricEquipment Internal Gains, LOBBY_FLR_1_MISCPLUG_EQUIP,BLDG_EQUIP_SCH,LOBBY_FLR_1,1308.19,422.0,10557.062,8.070,25.017,0.000,0.500,0.000,0.500,MiscPlug,0.000,10557.062
 ElectricEquipment Internal Gains, MECH_FLR_1_MISCPLUG_EQUIP,BLDG_EQUIP_SCH,MECH_FLR_1,164.24,0.0,883.628,5.380,N/A,0.000,0.500,0.000,0.500,MiscPlug,0.000,883.628
 ElectricEquipment Internal Gains, RETAIL_1_FLR_1_MISCPLUG_EQUIP,BLDG_EQUIP_SCH,RETAIL_1_FLR_1,67.07,10.8,721.688,10.760,66.604,0.000,0.500,0.000,0.500,MiscPlug,0.000,721.688
 ElectricEquipment Internal Gains, RETAIL_2_FLR_1_MISCPLUG_EQUIP,BLDG_EQUIP_SCH,RETAIL_2_FLR_1,77.67,12.5,835.717,10.760,66.604,0.000,0.500,0.000,0.500,MiscPlug,0.000,835.717
 ElectricEquipment Internal Gains, ROOM_1_FLR_3_PLUGMISC_EQUIP,GUESTROOM_EQP_SCH,ROOM_1_FLR_3,39.02,1.5,558.015,14.300,371.943,0.000,0.500,0.000,0.500,General,0.000,558.015
 ElectricEquipment Internal Gains, ROOM_1_FLR_6_PLUGMISC_EQUIP,GUESTROOM_EQP_SCH,ROOM_1_FLR_6,39.02,1.5,558.015,14.300,371.943,0.000,0.500,0.000,0.500,General,0.000,558.015
 ElectricEquipment Internal Gains, ROOM_2_FLR_3_PLUGMISC_EQUIP,GUESTROOM_EQP_SCH,ROOM_2_FLR_3,39.02,1.5,557.950,14.300,371.943,0.000,0.500,0.000,0.500,General,0.000,557.950
 ElectricEquipment Internal Gains, ROOM_2_FLR_6_PLUGMISC_EQUIP,GUESTROOM_EQP_SCH,ROOM_2_FLR_6,39.02,1.5,557.950,14.300,371.943,0.000,0.500,0.000,0.500,General,0.000,557.950
 ElectricEquipment Internal Gains, ROOM_3_MULT19_FLR_3_PLUGMISC_EQUIP,GUESTROOM_EQP_SCH,ROOM_3_MULT19_FLR_3,24.52,1.5,350.691,14.300,233.805,0.000,0.500,0.000,0.500,General,0.000,350.691
 ElectricEquipment Internal Gains, ROOM_3_MULT9_FLR_6_PLUGMISC_EQUIP,GUESTROOM_EQP_SCH,ROOM_3_MULT9_FLR_6,24.53,1.5,350.787,14.300,233.805,0.000,0.500,0.000,0.500,General,0.000,350.787
 ElectricEquipment Internal Gains, ROOM_4_MULT19_FLR_3_PLUGMISC_EQUIP,GUESTROOM_EQP_SCH,ROOM_4_MULT19_FLR_3,24.53,1.5,350.787,14.300,233.805,0.000,0.500,0.000,0.500,General,0.000,350.787
 ElectricEquipment Internal Gains, ROOM_5_FLR_3_PLUGMISC_EQUIP,GUESTROOM_EQP_SCH,ROOM_5_FLR_3,39.02,1.5,558.015,14.300,371.943,0.000,0.500,0.000,0.500,General,0.000,558.015
 ElectricEquipment Internal Gains, ROOM_6_FLR_3_PLUGMISC_EQUIP,GUESTROOM_EQP_SCH,ROOM_6_FLR_3,39.02,1.5,557.950,14.300,371.943,0.000,0.500,0.000,0.500,General,0.000,557.950
 ElectricEquipment Internal Gains, STORAGE_FLR_1_MISCPLUG_EQUIP,BLDG_EQUIP_SCH,STORAGE_FLR_1,94.76,2.0,254.902,2.690,124.951,0.000,0.500,0.000,0.500,MiscPlug,0.000,254.902
! <GasEquipment Internal Gains - Nominal>,Name,Schedule Name,Zone Name,Zone Floor Area {m2},# Zone Occupants,Equipment Level {W},Equipment/Floor Area {W/m2},Equipment per person {W/person},Fraction Latent,Fraction Radiant,Fraction Lost,Fraction Convected,End-Use SubCategory,Nominal Minimum Equipment Level {W},Nominal Maximum Equipment Level {W}
 GasEquipment Internal Gains, KITCHEN_FLR_6_MISCGAS_EQUIP,KITCHEN_GAS_EQUIP_SCH,KITCHEN_FLR_6,103.30,5.6,166606.000,1612.767,29965.108,0.100,0.200,0.700,0.000,MiscGas,0.000,49981.800
 GasEquipment Internal Gains, LAUNDRY_FLR_1_MISCGAS_EQUIP,LAUNDRYROOM_EQP_GAS_SCH,LAUNDRY_FLR_1,78.04,3.4,41818.000,535.857,12447.960,0.000,0.500,0.000,0.500,MiscGas,0.000,41818.000
! <Shadowing/Sun Position Calculations> [Annual Simulations], Calculation Method, Value {days}, Allowable Number Figures in Shadow Overlap {}, Polygon Clipping Algorithm, Sky Diffuse Modeling Algorithm
Shadowing/Sun Position Calculations,AverageOverDaysInFrequency,7,15000,SutherlandHodgman,SimpleSkyDiffuseModeling
! <#Refrigeration Compressor Racks>,Number of Refrigeration Compressor Racks
! <Refrigeration Compressor Rack>,Compressor Rack Name, # Refrigerated Cases Connected,# WalkIn Coolers Connected, Heat Rejection Location, Condenser Type, COP
!  <Refrigeration Case>,Refrigeration Case Number, Refrigeration Case Name,Zone Name,Zone Node #,Zone Node Name,Capacity (W/m),LHR,Temperature (C),Length (m),Fan (W/m),Installed Lighting (W/m),Anti-Sweat (W/m),Defrost (W/m)
#Refrigeration Compressor Racks, 2
 Refrigeration Compressor Rack,RACK1,1,0,Outdoors,Air-Cooled,1.500
   Refrigeration Case,1,KITCHEN_FLR_6_CASE:1_WALKINFREEZER,KITCHEN_FLR_6,216,KITCHEN_FLR_6 AIR NODE,367.0,0.10,-23.0,7.3,34.0,16.4,0.0,273.0
 Refrigeration Compressor Rack,RACK2,1,0,Outdoors,Air-Cooled,3.000
   Refrigeration Case,2,KITCHEN_FLR_6_CASE:2_SELFCONTAINEDDISPLAYCASE,KITCHEN_FLR_6,216,KITCHEN_FLR_6 AIR NODE,734.0,8.00E-002,2.0,3.7,55.0,33.0,0.0,0.0
! <Water Heater Information>,Type,Name,Volume {m3},Maximum Capacity {W},Standard Rated Recovery Efficiency, Standard Rated Energy Factor
! <Infiltration Airflow Stats - Nominal>,Name,Schedule Name,Zone Name, Zone Floor Area {m2}, # Zone Occupants,Design Volume Flow Rate {m3/s},Volume Flow Rate/Floor Area {m3/s/m2},Volume Flow Rate/Exterior Surface Area {m3/s/m2},ACH - Air Changes per Hour,Equation A - Constant Term Coefficient {},Equation B - Temperature Term Coefficient {1/C},Equation C - Velocity Term Coefficient {s/m}, Equation D - Velocity Squared Term Coefficient {s2/m2}
 ZoneInfiltration Airflow Stats, BANQUET_FLR_6_INFILTRATION,INFIL_QUARTER_ON_SCH,BANQUET_FLR_6,331.66,238.6,2.946E-002,8.883E-005,6.864E-005,0.105,1.000,0.000,0.000,0.000
 ZoneInfiltration Airflow Stats, CAFE_FLR_1_INFILTRATION,INFIL_QUARTER_ON_SCH,CAFE_FLR_1,188.86,135.9,4.596E-002,2.433E-004,1.348E-004,0.221,1.000,0.000,0.000,0.000
 ZoneInfiltration Airflow Stats, CORRIDOR_FLR_3_INFILTRATION,INFIL_QUARTER_ON_SCH,CORRIDOR_FLR_3,389.40,4.2,1.459E-002,3.746E-005,3.020E-004,4.425E-002,1.000,0.000,0.000,0.000
 ZoneInfiltration Airflow Stats, CORRIDOR_FLR_6_INFILTRATION,INFIL_QUARTER_ON_SCH,CORRIDOR_FLR_6,412.12,4.4,2.581E-002,6.263E-005,5.187E-005,7.398E-002,1.000,0.000,0.000,0.000
 ZoneInfiltration Airflow Stats, DINING_FLR_6_INFILTRATION,INFIL_QUARTER_ON_SCH,DINING_FLR_6,331.66,238.6,2.946E-002,8.883E-005,6.864E-005,0.105,1.000,0.000,0.000,0.000
 ZoneInfiltration Airflow Stats, KITCHEN_FLR_6_INFILTRATION,INFIL_QUARTER_ON_SCH,KITCHEN_FLR_6,103.30,5.6,2.637E-002,2.553E-004,1.383E-004,0.302,1.000,0.000,0.000,0.000
 ZoneInfiltration Airflow Stats, LAUNDRY_FLR_1_INFILTRATION,INFIL_QUARTER_ON_SCH,LAUNDRY_FLR_1,78.04,3.4,2.590E-002,3.318E-004,3.020E-004,0.301,1.000,0.000,0.000,0.000
 ZoneInfiltration Airflow Stats, LOBBY_FLR_1_INFILTRATION,INFIL_QUARTER_ON_SCH,LOBBY_FLR_1,1308.19,422.0,0.131,1.004E-004,1.931E-004,9.119E-002,1.000,0.000,0.000,0.000
 ZoneInfiltration Airflow Stats, MECH_FLR_1_INFILTRATION,INFIL_QUARTER_ON_SCH,MECH_FLR_1,164.24,0.0,1.897E-002,1.155E-004,3.020E-004,0.105,1.000,0.000,0.000,0.000
 ZoneInfiltration Airflow Stats, RETAIL_1_FLR_1_INFILTRATION,INFIL_QUARTER_ON_SCH,RETAIL_1_FLR_1,67.07,10.8,2.079E-002,3.100E-004,1.530E-004,0.282,1.000,0.000,0.000,0.000
 ZoneInfiltration Airflow Stats, RETAIL_2_FLR_1_INFILTRATION,INFIL_QUARTER_ON_SCH,RETAIL_2_FLR_1,77.67,12.5,8.025E-003,1.033E-004,3.020E-004,9.387E-002,1.000,0.000,0.000,0.000
 ZoneInfiltration Airflow Stats, ROOM_1_FLR_3_INFILTRATION,INFIL_QUARTER_ON_SCH,ROOM_1_FLR_3,39.02,1.5,1.206E-002,3.092E-004,3.020E-004,0.365,1.000,0.000,0.000,0.000
 ZoneInfiltration Airflow Stats, ROOM_1_FLR_6_INFILTRATION,INFIL_QUARTER_ON_SCH,ROOM_1_FLR_6,39.02,1.5,1.206E-002,3.092E-004,1.528E-004,0.365,1.000,0.000,0.000,0.000
 ZoneInfiltration Airflow Stats, ROOM_2_FLR_3_INFILTRATION,INFIL_QUARTER_ON_SCH,ROOM_2_FLR_3,39.02,1.5,1.206E-002,3.092E-004,3.020E-004,0.365,1.000,0.000,0.000,0.000
 ZoneInfiltration Airflow Stats, ROOM_2_FLR_6_INFILTRATION,INFIL_QUARTER_ON_SCH,ROOM_2_FLR_6,39.02,1.5,1.206E-002,3.092E-004,1.528E-004,0.365,1.000,0.000,0.000,0.000
 ZoneInfiltration Airflow Stats, ROOM_3_MULT19_FLR_3_INFILTRATION,INFIL_QUARTER_ON_SCH,ROOM_3_MULT19_FLR_3,24.52,1.5,3.366E-003,1.373E-004,3.020E-004,0.162,1.000,0.000,0.000,0.000
 ZoneInfiltration Airflow Stats, ROOM_3_MULT9_FLR_6_INFILTRATION,INFIL_QUARTER_ON_SCH,ROOM_3_MULT9_FLR_6,24.53,1.5,6.173E-003,2.516E-004,1.373E-004,0.297,1.000,0.000,0.000,0.000
 ZoneInfiltration Airflow Stats, ROOM_4_MULT19_FLR_3_INFILTRATION,INFIL_QUARTER_ON_SCH,ROOM_4_MULT19_FLR_3,24.53,1.5,3.367E-003,1.373E-004,3.020E-004,0.162,1.000,0.000,0.000,0.000
 ZoneInfiltration Airflow Stats, ROOM_5_FLR_3_INFILTRATION,INFIL_QUARTER_ON_SCH,ROOM_5_FLR_3,39.02,1.5,1.206E-002,3.092E-004,3.020E-004,0.365,1.000,0.000,0.000,0.000
 ZoneInfiltration Airflow Stats, ROOM_6_FLR_3_INFILTRATION,INFIL_QUARTER_ON_SCH,ROOM_6_FLR_3,39.02,1.5,1.206E-002,3.092E-004,3.020E-004,0.365,1.000,0.000,0.000,0.000
 ZoneInfiltration Airflow Stats, STORAGE_FLR_1_INFILTRATION,INFIL_QUARTER_ON_SCH,STORAGE_FLR_1,94.76,2.0,1.094E-002,1.155E-004,3.020E-004,0.105,1.000,0.000,0.000,0.000
! <Mixing Airflow Stats - Nominal>,Name,Schedule Name,Zone Name, Zone Floor Area {m2}, # Zone Occupants,Design Volume Flow Rate {m3/s},Volume Flow Rate/Floor Area {m3/s/m2},Volume Flow Rate/person Area {m3/s/person},ACH - Air Changes per Hour,From/Source Zone,Delta Temperature {C}
 Mixing Airflow Stats, KITCHEN_FLR_6 EXHAUST FANMIXING_0,HVACOPERATIONSCHD,KITCHEN_FLR_6,103.30,5.6,1.844,1.785E-002,0.332,21.077,DINING_FLR_6,0.00
! <AirFlow Model>, Simple
 AirFlow Model, Simple
! <RoomAir Model>, Zone Name, Mixing/Mundt/UCSDDV/UCSDCV/UCSDUFI/UCSDUFE/User Defined
RoomAir Model,BANQUET_FLR_6,Mixing/Well-Stirred
RoomAir Model,BASEMENT,Mixing/Well-Stirred
RoomAir Model,CAFE_FLR_1,Mixing/Well-Stirred
RoomAir Model,CORRIDOR_FLR_3,Mixing/Well-Stirred
RoomAir Model,CORRIDOR_FLR_6,Mixing/Well-Stirred
RoomAir Model,DINING_FLR_6,Mixing/Well-Stirred
RoomAir Model,KITCHEN_FLR_6,Mixing/Well-Stirred
RoomAir Model,LAUNDRY_FLR_1,Mixing/Well-Stirred
RoomAir Model,LOBBY_FLR_1,Mixing/Well-Stirred
RoomAir Model,MECH_FLR_1,Mixing/Well-Stirred
RoomAir Model,RETAIL_1_FLR_1,Mixing/Well-Stirred
RoomAir Model,RETAIL_2_FLR_1,Mixing/Well-Stirred
RoomAir Model,ROOM_1_FLR_3,Mixing/Well-Stirred
RoomAir Model,ROOM_1_FLR_6,Mixing/Well-Stirred
RoomAir Model,ROOM_2_FLR_3,Mixing/Well-Stirred
RoomAir Model,ROOM_2_FLR_6,Mixing/Well-Stirred
RoomAir Model,ROOM_3_MULT19_FLR_3,Mixing/Well-Stirred
RoomAir Model,ROOM_3_MULT9_FLR_6,Mixing/Well-Stirred
RoomAir Model,ROOM_4_MULT19_FLR_3,Mixing/Well-Stirred
RoomAir Model,ROOM_5_FLR_3,Mixing/Well-Stirred
RoomAir Model,ROOM_6_FLR_3,Mixing/Well-Stirred
RoomAir Model,STORAGE_FLR_1,Mixing/Well-Stirred
! <AirflowNetwork Model:Control>, No Multizone or Distribution/Multizone with Distribution/Multizone without Distribution/Multizone with Distribution only during Fan Operation
AirflowNetwork Model:Control,NoMultizoneOrDistribution
! <Zone Volume Capacitance Multiplier>, Sensible Heat Capacity Multiplier, Moisture Capacity Multiplier, Carbon Dioxide Capacity Multiplier, Generic Contaminant Capacity Multiplier
Zone Volume Capacitance Multiplier,   1.000 ,   1.000,   1.000,   1.000
! <Load Timesteps in Zone Design Calculation Averaging Window>, Value
 Load Timesteps in Zone Design Calculation Averaging Window,    6
! <Heating Sizing Factor Information>, Sizing Factor ID, Value
 Heating Sizing Factor Information, Global,   1.3300    
 Heating Sizing Factor Information, Zone BANQUET_FLR_6,   1.3300    
 Heating Sizing Factor Information, Zone BASEMENT,   1.3300    
 Heating Sizing Factor Information, Zone CAFE_FLR_1,   1.3300    
 Heating Sizing Factor Information, Zone CORRIDOR_FLR_3,   1.3300    
 Heating Sizing Factor Information, Zone CORRIDOR_FLR_6,   1.3300    
 Heating Sizing Factor Information, Zone DINING_FLR_6,   1.3300    
 Heating Sizing Factor Information, Zone KITCHEN_FLR_6,   1.3300    
 Heating Sizing Factor Information, Zone LAUNDRY_FLR_1,   1.3300    
 Heating Sizing Factor Information, Zone LOBBY_FLR_1,   1.3300    
 Heating Sizing Factor Information, Zone MECH_FLR_1,   1.3300    
 Heating Sizing Factor Information, Zone RETAIL_1_FLR_1,   1.3300    
 Heating Sizing Factor Information, Zone RETAIL_2_FLR_1,   1.3300    
 Heating Sizing Factor Information, Zone ROOM_1_FLR_3,   1.3300    
 Heating Sizing Factor Information, Zone ROOM_1_FLR_6,   1.3300    
 Heating Sizing Factor Information, Zone ROOM_2_FLR_3,   1.3300    
 Heating Sizing Factor Information, Zone ROOM_2_FLR_6,   1.3300    
 Heating Sizing Factor Information, Zone ROOM_3_MULT19_FLR_3,   1.3300    
 Heating Sizing Factor Information, Zone ROOM_3_MULT9_FLR_6,   1.3300    
 Heating Sizing Factor Information, Zone ROOM_4_MULT19_FLR_3,   1.3300    
 Heating Sizing Factor Information, Zone ROOM_5_FLR_3,   1.3300    
 Heating Sizing Factor Information, Zone ROOM_6_FLR_3,   1.3300    
 Heating Sizing Factor Information, Zone STORAGE_FLR_1,   1.3300    
! <Cooling Sizing Factor Information>, Sizing Factor ID, Value
 Cooling Sizing Factor Information, Global,   1.3300    
 Cooling Sizing Factor Information, Zone BANQUET_FLR_6,   1.3300    
 Cooling Sizing Factor Information, Zone BASEMENT,   1.3300    
 Cooling Sizing Factor Information, Zone CAFE_FLR_1,   1.3300    
 Cooling Sizing Factor Information, Zone CORRIDOR_FLR_3,   1.3300    
 Cooling Sizing Factor Information, Zone CORRIDOR_FLR_6,   1.3300    
 Cooling Sizing Factor Information, Zone DINING_FLR_6,   1.3300    
 Cooling Sizing Factor Information, Zone KITCHEN_FLR_6,   1.3300    
 Cooling Sizing Factor Information, Zone LAUNDRY_FLR_1,   1.3300    
 Cooling Sizing Factor Information, Zone LOBBY_FLR_1,   1.3300    
 Cooling Sizing Factor Information, Zone MECH_FLR_1,   1.3300    
 Cooling Sizing Factor Information, Zone RETAIL_1_FLR_1,   1.3300    
 Cooling Sizing Factor Information, Zone RETAIL_2_FLR_1,   1.3300    
 Cooling Sizing Factor Information, Zone ROOM_1_FLR_3,   1.3300    
 Cooling Sizing Factor Information, Zone ROOM_1_FLR_6,   1.3300    
 Cooling Sizing Factor Information, Zone ROOM_2_FLR_3,   1.3300    
 Cooling Sizing Factor Information, Zone ROOM_2_FLR_6,   1.3300    
 Cooling Sizing Factor Information, Zone ROOM_3_MULT19_FLR_3,   1.3300    
 Cooling Sizing Factor Information, Zone ROOM_3_MULT9_FLR_6,   1.3300    
 Cooling Sizing Factor Information, Zone ROOM_4_MULT19_FLR_3,   1.3300    
 Cooling Sizing Factor Information, Zone ROOM_5_FLR_3,   1.3300    
 Cooling Sizing Factor Information, Zone ROOM_6_FLR_3,   1.3300    
 Cooling Sizing Factor Information, Zone STORAGE_FLR_1,   1.3300    
! <Zone Sizing Information>, Zone Name, Load Type, Calc Des Load {W}, User Des Load {W}, Calc Des Air Flow Rate {m3/s}, User Des Air Flow Rate {m3/s}, Design Day Name, Date/Time of Peak, Temperature at Peak {C}, Humidity Ratio at Peak {kgWater/kgDryAir}, Floor Area {m2}, # Occupants, Calc Outdoor Air Flow Rate {m3/s}, Calc DOAS Heat Addition Rate {W}
 Zone Sizing Information, BANQUET_FLR_6, Cooling, 32921.89968, 43786.12657, 2.74986, 3.65731, NEWYORK ANN CLG .4% CONDNS WB=>MDB, 7/21 17:15:00, 29.43450, 1.87829E-002, 331.65745, 238.60248, 2.38602, 0.00000
 Zone Sizing Information, BANQUET_FLR_6, Heating, 11751.66061, 15629.70861, 0.51581, 2.38602, NEWYORK ANN HTG 99.6% CONDNS DB, 1/21 09:15:00, -20.60000, 6.12575E-004, 331.65745, 238.60248, 2.38602, 0.00000
 Zone Sizing Information, BASEMENT, Cooling, 23095.98721, 30717.66299, 1.92471, 2.55987, NEWYORK ANN CLG .4% CONDNS WB=>MDB, 7/21 19:00:00, 27.02700, 1.87829E-002, 1978.83018, 53.25162, 0.49471, 0.00000
 Zone Sizing Information, BASEMENT, Heating, 9680.71690, 12875.35347, 0.42492, 0.56515, NEWYORK ANN HTG 99.6% CONDNS DB, 1/21 24:00:00, -20.60000, 6.12575E-004, 1978.83018, 53.25162, 0.49471, 0.00000
 Zone Sizing Information, CAFE_FLR_1, Cooling, 17203.72104, 22880.94898, 1.43653, 1.91059, NEWYORK ANN CLG .4% CONDNS WB=>MDB, 7/21 15:45:00, 30.71850, 1.87829E-002, 188.86188, 135.87186, 1.35872, 0.00000
 Zone Sizing Information, CAFE_FLR_1, Heating, 10884.29995, 14476.11893, 0.47771, 1.35872, NEWYORK ANN HTG 99.6% CONDNS DB, 1/21 24:00:00, -20.60000, 6.12575E-004, 188.86188, 135.87186, 1.35872, 0.00000
 Zone Sizing Information, CORRIDOR_FLR_3, Cooling, 7421.41786, 9870.48575, 0.38652, 0.51408, NEWYORK ANN CLG .4% CONDNS WB=>MDB, 7/21 18:30:00, 27.82950, 1.87829E-002, 389.40468, 4.19165, 0.38940, 0.00000
 Zone Sizing Information, CORRIDOR_FLR_3, Heating, 7217.92198, 9599.83624, 0.25081, 0.38940, NEWYORK ANN HTG 99.6% CONDNS DB, 1/21 24:00:00, -20.60000, 6.12575E-004, 389.40468, 4.19165, 0.38940, 0.00000
 Zone Sizing Information, CORRIDOR_FLR_6, Cooling, 4081.52900, 5428.43357, 0.21258, 0.28273, NEWYORK ANN CLG .4% CONDNS WB=>MDB, 7/21 17:30:00, 29.16700, 1.87829E-002, 412.12471, 4.43622, 0.10303, 0.00000
 Zone Sizing Information, CORRIDOR_FLR_6, Heating, 7988.65975, 10624.91747, 0.27759, 0.36920, NEWYORK ANN HTG 99.6% CONDNS DB, 1/21 07:45:00, -20.60000, 6.12575E-004, 412.12471, 4.43622, 0.10303, 0.00000
 Zone Sizing Information, DINING_FLR_6, Cooling, 32938.04669, 43807.60210, 2.75121, 3.65911, NEWYORK ANN CLG .4% CONDNS WB=>MDB, 7/21 17:15:00, 29.43450, 1.87829E-002, 331.65745, 238.60248, 2.38602, 0.00000
 Zone Sizing Information, DINING_FLR_6, Heating, 10847.55234, 14427.24461, 0.47612, 2.38602, NEWYORK ANN HTG 99.6% CONDNS DB, 1/21 07:45:00, -20.60000, 6.12575E-004, 331.65745, 238.60248, 2.38602, 0.00000
 Zone Sizing Information, KITCHEN_FLR_6, Cooling, 19988.06470, 26584.12605, 1.39316, 1.85291, NEWYORK ANN CLG .4% CONDNS WB=>MDB, 7/21 07:00:00, 21.46300, 1.64954E-002, 103.30446, 5.56000, 4.44800E-002, 0.00000
 Zone Sizing Information, KITCHEN_FLR_6, Heating, 7076.89175, 9412.26602, 0.28099, 0.37371, NEWYORK ANN HTG 99.6% CONDNS DB, 1/21 07:00:00, -20.60000, 6.12575E-004, 103.30446, 5.56000, 4.44800E-002, 0.00000
 Zone Sizing Information, LAUNDRY_FLR_1, Cooling, 43056.80892, 57265.55586, 3.58823, 4.77234, NEWYORK ANN CLG .4% CONDNS WB=>MDB, 7/21 17:15:00, 29.43450, 1.87829E-002, 78.03947, 3.35943, 0.23600, 0.00000
 Zone Sizing Information, LAUNDRY_FLR_1, Heating, 2552.58206, 3394.93413, 0.11203, 0.23600, NEWYORK ANN HTG 99.6% CONDNS DB, 1/21 24:00:00, -20.60000, 6.12575E-004, 78.03947, 3.35943, 0.23600, 0.00000
 Zone Sizing Information, LOBBY_FLR_1, Cooling, 62386.84947, 82974.50980, 5.20434, 6.92178, NEWYORK ANN CLG .4% CONDNS WB=>MDB, 7/21 16:00:00, 30.55800, 1.87829E-002, 1308.18612, 421.99552, 4.21996, 0.00000
 Zone Sizing Information, LOBBY_FLR_1, Heating, 23831.22649, 31695.53124, 1.04600, 4.21996, NEWYORK ANN HTG 99.6% CONDNS DB, 1/21 24:00:00, -20.60000, 6.12575E-004, 1308.18612, 421.99552, 4.21996, 0.00000
 Zone Sizing Information, MECH_FLR_1, Cooling, 994.67467, 1322.91731, 5.18029E-002, 6.88979E-002, NEWYORK ANN CLG .4% CONDNS WB=>MDB, 7/21 18:15:00, 28.23075, 1.87829E-002, 164.24319, 0.00000, 4.10608E-002, 0.00000
 Zone Sizing Information, MECH_FLR_1, Heating, 0.00000, 0.00000, 0.00000, 4.10608E-002, NEWYORK ANN HTG 99.6% CONDNS DB, , -20.60000, 6.12575E-004, 164.24319, 0.00000, 4.10608E-002, 0.00000
 Zone Sizing Information, RETAIL_1_FLR_1, Cooling, 4034.13716, 5365.40242, 0.33633, 0.44731, NEWYORK ANN CLG .4% CONDNS WB=>MDB, 7/21 15:45:00, 30.71850, 1.87829E-002, 67.07136, 10.83544, 0.10195, 0.00000
 Zone Sizing Information, RETAIL_1_FLR_1, Heating, 4212.74676, 5602.95319, 0.18489, 0.24591, NEWYORK ANN HTG 99.6% CONDNS DB, 1/21 24:00:00, -20.60000, 6.12575E-004, 67.07136, 10.83544, 0.10195, 0.00000
 Zone Sizing Information, RETAIL_2_FLR_1, Cooling, 3224.84259, 4289.04064, 0.26885, 0.35757, NEWYORK ANN CLG .4% CONDNS WB=>MDB, 7/21 22:00:00, 23.92400, 1.87829E-002, 77.66889, 12.54748, 0.11806, 0.00000
 Zone Sizing Information, RETAIL_2_FLR_1, Heating, 1094.55040, 1455.75203, 4.80419E-002, 0.11806, NEWYORK ANN HTG 99.6% CONDNS DB, 1/21 24:00:00, -20.60000, 6.12575E-004, 77.66889, 12.54748, 0.11806, 0.00000
 Zone Sizing Information, ROOM_1_FLR_3, Cooling, 12667.78466, 16848.15359, 0.87979, 1.17012, NEWYORK ANN CLG .4% CONDNS WB=>MDB, 7/21 17:15:00, 29.43450, 1.87829E-002, 39.02202, 1.50027, 5.66400E-002, 0.00000
 Zone Sizing Information, ROOM_1_FLR_3, Heating, 9161.80078, 12185.19503, 0.40210, 0.53480, NEWYORK ANN HTG 99.6% CONDNS DB, 1/21 24:00:00, -20.60000, 6.12575E-004, 39.02202, 1.50027, 5.66400E-002, 0.00000
 Zone Sizing Information, ROOM_1_FLR_6, Cooling, 3464.58999, 4607.90468, 0.24062, 0.32002, NEWYORK ANN CLG .4% CONDNS WB=>MDB, 7/21 17:30:00, 29.16700, 1.87829E-002, 39.02202, 1.50027, 1.41600E-002, 0.00000
 Zone Sizing Information, ROOM_1_FLR_6, Heating, 2738.33059, 3641.97968, 0.12018, 0.15984, NEWYORK ANN HTG 99.6% CONDNS DB, 1/21 24:00:00, -20.60000, 6.12575E-004, 39.02202, 1.50027, 1.41600E-002, 0.00000
 Zone Sizing Information, ROOM_2_FLR_3, Cooling, 12512.47600, 16641.59308, 0.86901, 1.15578, NEWYORK ANN CLG .4% CONDNS WB=>MDB, 7/21 17:30:00, 29.16700, 1.87829E-002, 39.01745, 1.50009, 5.66400E-002, 0.00000
 Zone Sizing Information, ROOM_2_FLR_3, Heating, 9166.49190, 12191.43422, 0.40231, 0.53507, NEWYORK ANN HTG 99.6% CONDNS DB, 1/21 24:00:00, -20.60000, 6.12575E-004, 39.01745, 1.50009, 5.66400E-002, 0.00000
 Zone Sizing Information, ROOM_2_FLR_6, Cooling, 3427.73739, 4558.89073, 0.23806, 0.31662, NEWYORK ANN CLG .4% CONDNS WB=>MDB, 7/21 17:30:00, 29.16700, 1.87829E-002, 39.01745, 1.50009, 1.41600E-002, 0.00000
 Zone Sizing Information, ROOM_2_FLR_6, Heating, 2743.44148, 3648.77716, 0.12041, 0.16014, NEWYORK ANN HTG 99.6% CONDNS DB, 1/21 24:00:00, -20.60000, 6.12575E-004, 39.01745, 1.50009, 1.41600E-002, 0.00000
 Zone Sizing Information, ROOM_3_MULT19_FLR_3, Cooling, 73342.14242, 97545.04941, 5.31254, 20.44704, NEWYORK ANN CLG .4% CONDNS WB=>MDB, 7/21 13:45:00, 31.06625, 1.87829E-002, 24.52384, 1.49993, 20.44704, 0.00000
 Zone Sizing Information, ROOM_3_MULT19_FLR_3, Heating, 46932.73204, 62420.53361, 2.05994, 20.44704, NEWYORK ANN HTG 99.6% CONDNS DB, 1/21 24:00:00, -20.60000, 6.12575E-004, 24.52384, 1.49993, 20.44704, 0.00000
 Zone Sizing Information, ROOM_3_MULT9_FLR_6, Cooling, 11753.02567, 15631.52414, 0.85135, 1.14696, NEWYORK ANN CLG .4% CONDNS WB=>MDB, 7/21 15:45:00, 30.71850, 1.87829E-002, 24.53055, 1.50034, 1.14696, 0.00000
 Zone Sizing Information, ROOM_3_MULT9_FLR_6, Heating, 13397.53709, 17818.72432, 0.58802, 1.14696, NEWYORK ANN HTG 99.6% CONDNS DB, 1/21 24:00:00, -20.60000, 6.12575E-004, 24.53055, 1.50034, 1.14696, 0.00000
 Zone Sizing Information, ROOM_4_MULT19_FLR_3, Cooling, 67521.12344, 89803.09418, 4.89092, 20.44704, NEWYORK ANN CLG .4% CONDNS WB=>MDB, 7/21 15:15:00, 31.03950, 1.87829E-002, 24.53055, 1.50034, 20.44704, 0.00000
 Zone Sizing Information, ROOM_4_MULT19_FLR_3, Heating, 46968.65209, 62468.30728, 2.06152, 20.44704, NEWYORK ANN HTG 99.6% CONDNS DB, 1/21 24:00:00, -20.60000, 6.12575E-004, 24.53055, 1.50034, 20.44704, 0.00000
 Zone Sizing Information, ROOM_5_FLR_3, Cooling, 11175.43934, 14863.33432, 0.80991, 1.07718, NEWYORK ANN CLG .4% CONDNS WB=>MDB, 7/21 09:15:00, 25.76975, 1.87829E-002, 39.02202, 1.50027, 5.66400E-002, 0.00000
 Zone Sizing Information, ROOM_5_FLR_3, Heating, 9113.45592, 12120.89638, 0.39998, 0.53197, NEWYORK ANN HTG 99.6% CONDNS DB, 1/21 24:00:00, -20.60000, 6.12575E-004, 39.02202, 1.50027, 5.66400E-002, 0.00000
 Zone Sizing Information, ROOM_6_FLR_3, Cooling, 11095.75920, 14757.35974, 0.82789, 1.10110, NEWYORK ANN CLG .4% CONDNS WB=>MDB, 7/21 09:00:00, 25.31500, 1.87829E-002, 39.01745, 1.50009, 5.66400E-002, 0.00000
 Zone Sizing Information, ROOM_6_FLR_3, Heating, 9118.04920, 12127.00543, 0.40018, 0.53224, NEWYORK ANN HTG 99.6% CONDNS DB, 1/21 24:00:00, -20.60000, 6.12575E-004, 39.01745, 1.50009, 5.66400E-002, 0.00000
 Zone Sizing Information, STORAGE_FLR_1, Cooling, 61.10294, 81.26690, 3.18256E-003, 7.20170E-002, NEWYORK ANN CLG .4% CONDNS WB=>MDB, 7/21 16:15:00, 30.34400, 1.87829E-002, 94.75927, 2.04003, 7.20170E-002, 0.00000
 Zone Sizing Information, STORAGE_FLR_1, Heating, 0.00000, 0.00000, 0.00000, 7.20170E-002, NEWYORK ANN HTG 99.6% CONDNS DB, , -20.60000, 6.12575E-004, 94.75927, 2.04003, 7.20170E-002, 0.00000
! <System Sizing Information>, System Name, Field Description, Value
 System Sizing Information, FLR_3_DOAS, Calculated Cooling Design Air Flow Rate [m3/s], 45.39826
 System Sizing Information, FLR_3_DOAS, User Cooling Design Air Flow Rate [m3/s], 2.37888
 System Sizing Information, FLR_3_DOAS, Calculated Heating Design Air Flow Rate [m3/s], 43.02816
 System Sizing Information, FLR_3_DOAS, User Heating Design Air Flow Rate [m3/s], 2.37888
 System Sizing Information, FLR_6_DOAS, Calculated Cooling Design Air Flow Rate [m3/s], 1.78360
 System Sizing Information, FLR_6_DOAS, User Cooling Design Air Flow Rate [m3/s], 0.15576
 System Sizing Information, FLR_6_DOAS, Calculated Heating Design Air Flow Rate [m3/s], 1.46695
 System Sizing Information, FLR_6_DOAS, User Heating Design Air Flow Rate [m3/s], 0.15576
 System Sizing Information, VAV WITH REHEAT, Calculated Cooling Design Air Flow Rate [m3/s], 27.07651
 System Sizing Information, VAV WITH REHEAT, User Cooling Design Air Flow Rate [m3/s], 27.07651
 System Sizing Information, VAV WITH REHEAT, Calculated Heating Design Air Flow Rate [m3/s], 12.76123
 System Sizing Information, VAV WITH REHEAT, User Heating Design Air Flow Rate [m3/s], 12.76123
! <Component Sizing Information>, Component Type, Component Name, Input Field Description, Value
 Component Sizing Information, AirTerminal:SingleDuct:VAV:Reheat, BANQUET_FLR_6 VAV BOX COMPONENT, Design Size Maximum Air Flow Rate [m3/s], 3.65731
 Component Sizing Information, AirTerminal:SingleDuct:VAV:Reheat, BANQUET_FLR_6 VAV BOX COMPONENT, Design Size Maximum Flow per Zone Floor Area during Reheat [m3/s-m2], 3.30821E-003
 Component Sizing Information, AirTerminal:SingleDuct:VAV:Reheat, BANQUET_FLR_6 VAV BOX COMPONENT, Design Size Maximum Flow Fraction during Reheat [], 0.30000
 Component Sizing Information, AirTerminal:SingleDuct:VAV:Reheat, BANQUET_FLR_6 VAV BOX COMPONENT, Design Size Maximum Reheat Water Flow Rate [m3/s], 4.66019E-004
 Component Sizing Information, AirTerminal:SingleDuct:VAV:Reheat, BANQUET_FLR_6 VAV BOX COMPONENT, Design Size Reheat Coil Sizing Air Volume Flow Rate [m3/s], 1.09719
 Component Sizing Information, Coil:Heating:Water, BANQUET_FLR_6 VAV BOX REHEAT COIL, Design Size Design Coil Load [W], 21646.02041
 Component Sizing Information, Coil:Heating:Water, BANQUET_FLR_6 VAV BOX REHEAT COIL, Design Size Maximum Water Flow Rate [m3/s], 4.66019E-004
 Component Sizing Information, Coil:Heating:Water, BANQUET_FLR_6 VAV BOX REHEAT COIL, Design Size U-Factor Times Area Value [W/K], 437.32670
! <Water Heating Coil Capacity Information>,Component Type,Name,Nominal Total Capacity {W}
Water Heating Coil Capacity Information,Coil:Heating:Water,BANQUET_FLR_6 VAV BOX REHEAT COIL,21671.19
 Component Sizing Information, AirTerminal:SingleDuct:VAV:Reheat, BASEMENT VAV BOX COMPONENT, Design Size Maximum Air Flow Rate [m3/s], 2.55987
 Component Sizing Information, AirTerminal:SingleDuct:VAV:Reheat, BASEMENT VAV BOX COMPONENT, Design Size Maximum Flow per Zone Floor Area during Reheat [m3/s-m2], 1.29363E-003
 Component Sizing Information, AirTerminal:SingleDuct:VAV:Reheat, BASEMENT VAV BOX COMPONENT, Design Size Maximum Flow Fraction during Reheat [], 1.00000
 Component Sizing Information, AirTerminal:SingleDuct:VAV:Reheat, BASEMENT VAV BOX COMPONENT, Design Size Maximum Reheat Water Flow Rate [m3/s], 3.68596E-004
 Component Sizing Information, AirTerminal:SingleDuct:VAV:Reheat, BASEMENT VAV BOX COMPONENT, Design Size Reheat Coil Sizing Air Volume Flow Rate [m3/s], 0.76796
 Component Sizing Information, Coil:Heating:Water, BASEMENT VAV BOX REHEAT COIL, Design Size Design Coil Load [W], 17120.84620
 Component Sizing Information, Coil:Heating:Water, BASEMENT VAV BOX REHEAT COIL, Design Size Maximum Water Flow Rate [m3/s], 3.68596E-004
 Component Sizing Information, Coil:Heating:Water, BASEMENT VAV BOX REHEAT COIL, Design Size U-Factor Times Area Value [W/K], 352.76367
Water Heating Coil Capacity Information,Coil:Heating:Water,BASEMENT VAV BOX REHEAT COIL,17140.27
 Component Sizing Information, AirTerminal:SingleDuct:VAV:Reheat, CAFE_FLR_1 VAV BOX COMPONENT, Design Size Maximum Air Flow Rate [m3/s], 1.91059
 Component Sizing Information, AirTerminal:SingleDuct:VAV:Reheat, CAFE_FLR_1 VAV BOX COMPONENT, Design Size Maximum Flow per Zone Floor Area during Reheat [m3/s-m2], 3.03490E-003
 Component Sizing Information, AirTerminal:SingleDuct:VAV:Reheat, CAFE_FLR_1 VAV BOX COMPONENT, Design Size Maximum Flow Fraction during Reheat [], 0.30000
 Component Sizing Information, AirTerminal:SingleDuct:VAV:Reheat, CAFE_FLR_1 VAV BOX COMPONENT, Design Size Maximum Reheat Water Flow Rate [m3/s], 3.88621E-004
 Component Sizing Information, AirTerminal:SingleDuct:VAV:Reheat, CAFE_FLR_1 VAV BOX COMPONENT, Design Size Reheat Coil Sizing Air Volume Flow Rate [m3/s], 0.63536
 Component Sizing Information, Coil:Heating:Water, CAFE_FLR_1 VAV BOX REHEAT COIL, Design Size Design Coil Load [W], 18050.97343
 Component Sizing Information, Coil:Heating:Water, CAFE_FLR_1 VAV BOX REHEAT COIL, Design Size Maximum Water Flow Rate [m3/s], 3.88621E-004
 Component Sizing Information, Coil:Heating:Water, CAFE_FLR_1 VAV BOX REHEAT COIL, Design Size U-Factor Times Area Value [W/K], 391.80268
Water Heating Coil Capacity Information,Coil:Heating:Water,CAFE_FLR_1 VAV BOX REHEAT COIL,17705.08
 Component Sizing Information, AirTerminal:SingleDuct:VAV:Reheat, CORRIDOR_FLR_3 VAV BOX COMPONENT, Design Size Maximum Air Flow Rate [m3/s], 0.51408
 Component Sizing Information, AirTerminal:SingleDuct:VAV:Reheat, CORRIDOR_FLR_3 VAV BOX COMPONENT, Design Size Maximum Flow per Zone Floor Area during Reheat [m3/s-m2], 3.30041E-004
 Component Sizing Information, AirTerminal:SingleDuct:VAV:Reheat, CORRIDOR_FLR_3 VAV BOX COMPONENT, Design Size Maximum Flow Fraction during Reheat [], 1.00000
 Component Sizing Information, AirTerminal:SingleDuct:VAV:Reheat, CORRIDOR_FLR_3 VAV BOX COMPONENT, Design Size Maximum Reheat Water Flow Rate [m3/s], 2.04056E-004
 Component Sizing Information, AirTerminal:SingleDuct:VAV:Reheat, CORRIDOR_FLR_3 VAV BOX COMPONENT, Design Size Reheat Coil Sizing Air Volume Flow Rate [m3/s], 0.33358
 Component Sizing Information, Coil:Heating:Water, CORRIDOR_FLR_3 VAV BOX REHEAT COIL, Design Size Design Coil Load [W], 9478.15647
 Component Sizing Information, Coil:Heating:Water, CORRIDOR_FLR_3 VAV BOX REHEAT COIL, Design Size Maximum Water Flow Rate [m3/s], 2.04056E-004
 Component Sizing Information, Coil:Heating:Water, CORRIDOR_FLR_3 VAV BOX REHEAT COIL, Design Size U-Factor Times Area Value [W/K], 205.73169
Water Heating Coil Capacity Information,Coil:Heating:Water,CORRIDOR_FLR_3 VAV BOX REHEAT COIL,7620.01
 Component Sizing Information, AirTerminal:SingleDuct:VAV:Reheat, CORRIDOR_FLR_6 VAV BOX COMPONENT, Design Size Maximum Air Flow Rate [m3/s], 0.36920
 Component Sizing Information, AirTerminal:SingleDuct:VAV:Reheat, CORRIDOR_FLR_6 VAV BOX COMPONENT, Design Size Maximum Flow per Zone Floor Area during Reheat [m3/s-m2], 8.95840E-004
 Component Sizing Information, AirTerminal:SingleDuct:VAV:Reheat, CORRIDOR_FLR_6 VAV BOX COMPONENT, Design Size Maximum Flow Fraction during Reheat [], 1.00000
 Component Sizing Information, AirTerminal:SingleDuct:VAV:Reheat, CORRIDOR_FLR_6 VAV BOX COMPONENT, Design Size Maximum Reheat Water Flow Rate [m3/s], 2.25840E-004
 Component Sizing Information, AirTerminal:SingleDuct:VAV:Reheat, CORRIDOR_FLR_6 VAV BOX COMPONENT, Design Size Reheat Coil Sizing Air Volume Flow Rate [m3/s], 0.36920
 Component Sizing Information, Coil:Heating:Water, CORRIDOR_FLR_6 VAV BOX REHEAT COIL, Design Size Design Coil Load [W], 10489.99852
 Component Sizing Information, Coil:Heating:Water, CORRIDOR_FLR_6 VAV BOX REHEAT COIL, Design Size Maximum Water Flow Rate [m3/s], 2.25840E-004
 Component Sizing Information, Coil:Heating:Water, CORRIDOR_FLR_6 VAV BOX REHEAT COIL, Design Size U-Factor Times Area Value [W/K], 227.69372
Water Heating Coil Capacity Information,Coil:Heating:Water,CORRIDOR_FLR_6 VAV BOX REHEAT COIL,6837.68
 Component Sizing Information, ZoneHVAC:UnitHeater, CORRIDOR_FLR_6 UNIT HEATER, Design Size Maximum Supply Air Flow Rate [m3/s], 0.36920
 Component Sizing Information, Fan:ConstantVolume, CORRIDOR_FLR_6 UNIT HEATERFAN, Design Size Maximum Flow Rate [m3/s], 0.36920
 Component Sizing Information, Coil:Heating:Electric, CORRIDOR_FLR_6 UNIT HEATER COIL, Design Size Nominal Capacity [W], 15146.42376
 Component Sizing Information, AirTerminal:SingleDuct:VAV:Reheat, DINING_FLR_6 VAV BOX COMPONENT, Design Size Maximum Air Flow Rate [m3/s], 3.65911
 Component Sizing Information, AirTerminal:SingleDuct:VAV:Reheat, DINING_FLR_6 VAV BOX COMPONENT, Design Size Maximum Flow per Zone Floor Area during Reheat [m3/s-m2], 3.30984E-003
 Component Sizing Information, AirTerminal:SingleDuct:VAV:Reheat, DINING_FLR_6 VAV BOX COMPONENT, Design Size Maximum Flow Fraction during Reheat [], 0.30000
 Component Sizing Information, AirTerminal:SingleDuct:VAV:Reheat, DINING_FLR_6 VAV BOX COMPONENT, Design Size Maximum Reheat Water Flow Rate [m3/s], 4.39750E-004
 Component Sizing Information, AirTerminal:SingleDuct:VAV:Reheat, DINING_FLR_6 VAV BOX COMPONENT, Design Size Reheat Coil Sizing Air Volume Flow Rate [m3/s], 1.09773
 Component Sizing Information, Coil:Heating:Water, DINING_FLR_6 VAV BOX REHEAT COIL, Design Size Design Coil Load [W], 20425.83648
 Component Sizing Information, Coil:Heating:Water, DINING_FLR_6 VAV BOX REHEAT COIL, Design Size Maximum Water Flow Rate [m3/s], 4.39750E-004
 Component Sizing Information, Coil:Heating:Water, DINING_FLR_6 VAV BOX REHEAT COIL, Design Size U-Factor Times Area Value [W/K], 409.33328
Water Heating Coil Capacity Information,Coil:Heating:Water,DINING_FLR_6 VAV BOX REHEAT COIL,20450.00
 Component Sizing Information, AirTerminal:SingleDuct:VAV:Reheat, KITCHEN_FLR_6 VAV BOX COMPONENT, Design Size Maximum Air Flow Rate [m3/s], 1.85291
 Component Sizing Information, AirTerminal:SingleDuct:VAV:Reheat, KITCHEN_FLR_6 VAV BOX COMPONENT, Design Size Maximum Flow per Zone Floor Area during Reheat [m3/s-m2], 5.38091E-003
 Component Sizing Information, AirTerminal:SingleDuct:VAV:Reheat, KITCHEN_FLR_6 VAV BOX COMPONENT, Design Size Maximum Flow Fraction during Reheat [], 0.30000
 Component Sizing Information, AirTerminal:SingleDuct:VAV:Reheat, KITCHEN_FLR_6 VAV BOX COMPONENT, Design Size Maximum Reheat Water Flow Rate [m3/s], 2.39550E-004
 Component Sizing Information, AirTerminal:SingleDuct:VAV:Reheat, KITCHEN_FLR_6 VAV BOX COMPONENT, Design Size Reheat Coil Sizing Air Volume Flow Rate [m3/s], 0.55587
 Component Sizing Information, Coil:Heating:Water, KITCHEN_FLR_6 VAV BOX REHEAT COIL, Design Size Design Coil Load [W], 11126.80655
 Component Sizing Information, Coil:Heating:Water, KITCHEN_FLR_6 VAV BOX REHEAT COIL, Design Size Maximum Water Flow Rate [m3/s], 2.39550E-004
 Component Sizing Information, Coil:Heating:Water, KITCHEN_FLR_6 VAV BOX REHEAT COIL, Design Size U-Factor Times Area Value [W/K], 225.28179
Water Heating Coil Capacity Information,Coil:Heating:Water,KITCHEN_FLR_6 VAV BOX REHEAT COIL,11139.69
 Component Sizing Information, AirTerminal:SingleDuct:VAV:Reheat, LAUNDRY_FLR_1 VAV BOX COMPONENT, Design Size Maximum Air Flow Rate [m3/s], 4.77234
 Component Sizing Information, AirTerminal:SingleDuct:VAV:Reheat, LAUNDRY_FLR_1 VAV BOX COMPONENT, Design Size Maximum Flow per Zone Floor Area during Reheat [m3/s-m2], 1.83459E-002
 Component Sizing Information, AirTerminal:SingleDuct:VAV:Reheat, LAUNDRY_FLR_1 VAV BOX COMPONENT, Design Size Maximum Flow Fraction during Reheat [], 0.30000
 Component Sizing Information, AirTerminal:SingleDuct:VAV:Reheat, LAUNDRY_FLR_1 VAV BOX COMPONENT, Design Size Maximum Reheat Water Flow Rate [m3/s], 2.35731E-004
 Component Sizing Information, AirTerminal:SingleDuct:VAV:Reheat, LAUNDRY_FLR_1 VAV BOX COMPONENT, Design Size Reheat Coil Sizing Air Volume Flow Rate [m3/s], 1.43170
 Component Sizing Information, Coil:Heating:Water, LAUNDRY_FLR_1 VAV BOX REHEAT COIL, Design Size Design Coil Load [W], 10949.40600
 Component Sizing Information, Coil:Heating:Water, LAUNDRY_FLR_1 VAV BOX REHEAT COIL, Design Size Maximum Water Flow Rate [m3/s], 2.35731E-004
 Component Sizing Information, Coil:Heating:Water, LAUNDRY_FLR_1 VAV BOX REHEAT COIL, Design Size U-Factor Times Area Value [W/K], 198.60290
Water Heating Coil Capacity Information,Coil:Heating:Water,LAUNDRY_FLR_1 VAV BOX REHEAT COIL,10963.73
 Component Sizing Information, AirTerminal:SingleDuct:VAV:Reheat, LOBBY_FLR_1 VAV BOX COMPONENT, Design Size Maximum Air Flow Rate [m3/s], 6.92178
 Component Sizing Information, AirTerminal:SingleDuct:VAV:Reheat, LOBBY_FLR_1 VAV BOX COMPONENT, Design Size Maximum Flow per Zone Floor Area during Reheat [m3/s-m2], 2.03200E-003
 Component Sizing Information, AirTerminal:SingleDuct:VAV:Reheat, LOBBY_FLR_1 VAV BOX COMPONENT, Design Size Maximum Flow Fraction during Reheat [], 0.38404
 Component Sizing Information, AirTerminal:SingleDuct:VAV:Reheat, LOBBY_FLR_1 VAV BOX COMPONENT, Design Size Maximum Reheat Water Flow Rate [m3/s], 9.28222E-004
 Component Sizing Information, AirTerminal:SingleDuct:VAV:Reheat, LOBBY_FLR_1 VAV BOX COMPONENT, Design Size Reheat Coil Sizing Air Volume Flow Rate [m3/s], 2.07653
 Component Sizing Information, Coil:Heating:Water, LOBBY_FLR_1 VAV BOX REHEAT COIL, Design Size Design Coil Load [W], 43114.77613
 Component Sizing Information, Coil:Heating:Water, LOBBY_FLR_1 VAV BOX REHEAT COIL, Design Size Maximum Water Flow Rate [m3/s], 9.28222E-004
 Component Sizing Information, Coil:Heating:Water, LOBBY_FLR_1 VAV BOX REHEAT COIL, Design Size U-Factor Times Area Value [W/K], 877.84675
Water Heating Coil Capacity Information,Coil:Heating:Water,LOBBY_FLR_1 VAV BOX REHEAT COIL,43164.25
 Component Sizing Information, AirTerminal:SingleDuct:VAV:Reheat, MECH_FLR_1 VAV BOX COMPONENT, Design Size Maximum Air Flow Rate [m3/s], 6.88979E-002
 Component Sizing Information, AirTerminal:SingleDuct:VAV:Reheat, MECH_FLR_1 VAV BOX COMPONENT, Design Size Maximum Flow per Zone Floor Area during Reheat [m3/s-m2], 4.19487E-004
 Component Sizing Information, AirTerminal:SingleDuct:VAV:Reheat, MECH_FLR_1 VAV BOX COMPONENT, Design Size Maximum Flow Fraction during Reheat [], 1.00000
 Component Sizing Information, AirTerminal:SingleDuct:VAV:Reheat, MECH_FLR_1 VAV BOX COMPONENT, Design Size Maximum Reheat Water Flow Rate [m3/s], 0.00000
 Component Sizing Information, AirTerminal:SingleDuct:VAV:Reheat, MECH_FLR_1 VAV BOX COMPONENT, Design Size Reheat Coil Sizing Air Volume Flow Rate [m3/s], 2.06694E-002
 Component Sizing Information, Coil:Heating:Water, MECH_FLR_1 VAV BOX REHEAT COIL, Design Size Design Coil Load [W], 0.00000
 Component Sizing Information, Coil:Heating:Water, MECH_FLR_1 VAV BOX REHEAT COIL, Design Size Maximum Water Flow Rate [m3/s], 0.00000
 Component Sizing Information, Coil:Heating:Water, MECH_FLR_1 VAV BOX REHEAT COIL, Design Size U-Factor Times Area Value [W/K], 1.00000
Water Heating Coil Capacity Information,Coil:Heating:Water,MECH_FLR_1 VAV BOX REHEAT COIL,0.00
 Component Sizing Information, AirTerminal:SingleDuct:VAV:Reheat, RETAIL_1_FLR_1 VAV BOX COMPONENT, Design Size Maximum Air Flow Rate [m3/s], 0.44731
 Component Sizing Information, AirTerminal:SingleDuct:VAV:Reheat, RETAIL_1_FLR_1 VAV BOX COMPONENT, Design Size Maximum Flow per Zone Floor Area during Reheat [m3/s-m2], 2.03200E-003
 Component Sizing Information, AirTerminal:SingleDuct:VAV:Reheat, RETAIL_1_FLR_1 VAV BOX COMPONENT, Design Size Maximum Flow Fraction during Reheat [], 0.30468
 Component Sizing Information, AirTerminal:SingleDuct:VAV:Reheat, RETAIL_1_FLR_1 VAV BOX COMPONENT, Design Size Maximum Reheat Water Flow Rate [m3/s], 1.50411E-004
 Component Sizing Information, AirTerminal:SingleDuct:VAV:Reheat, RETAIL_1_FLR_1 VAV BOX COMPONENT, Design Size Reheat Coil Sizing Air Volume Flow Rate [m3/s], 0.24591
 Component Sizing Information, Coil:Heating:Water, RETAIL_1_FLR_1 VAV BOX REHEAT COIL, Design Size Design Coil Load [W], 6986.39584
 Component Sizing Information, Coil:Heating:Water, RETAIL_1_FLR_1 VAV BOX REHEAT COIL, Design Size Maximum Water Flow Rate [m3/s], 1.50411E-004
 Component Sizing Information, Coil:Heating:Water, RETAIL_1_FLR_1 VAV BOX REHEAT COIL, Design Size U-Factor Times Area Value [W/K], 151.64173
Water Heating Coil Capacity Information,Coil:Heating:Water,RETAIL_1_FLR_1 VAV BOX REHEAT COIL,5975.49
 Component Sizing Information, AirTerminal:SingleDuct:VAV:Reheat, RETAIL_2_FLR_1 VAV BOX COMPONENT, Design Size Maximum Air Flow Rate [m3/s], 0.35757
 Component Sizing Information, AirTerminal:SingleDuct:VAV:Reheat, RETAIL_2_FLR_1 VAV BOX COMPONENT, Design Size Maximum Flow per Zone Floor Area during Reheat [m3/s-m2], 2.03200E-003
 Component Sizing Information, AirTerminal:SingleDuct:VAV:Reheat, RETAIL_2_FLR_1 VAV BOX COMPONENT, Design Size Maximum Flow Fraction during Reheat [], 0.44138
 Component Sizing Information, AirTerminal:SingleDuct:VAV:Reheat, RETAIL_2_FLR_1 VAV BOX COMPONENT, Design Size Maximum Reheat Water Flow Rate [m3/s], 4.39730E-005
 Component Sizing Information, AirTerminal:SingleDuct:VAV:Reheat, RETAIL_2_FLR_1 VAV BOX COMPONENT, Design Size Reheat Coil Sizing Air Volume Flow Rate [m3/s], 0.10727
 Component Sizing Information, Coil:Heating:Water, RETAIL_2_FLR_1 VAV BOX REHEAT COIL, Design Size Design Coil Load [W], 2042.49250
 Component Sizing Information, Coil:Heating:Water, RETAIL_2_FLR_1 VAV BOX REHEAT COIL, Design Size Maximum Water Flow Rate [m3/s], 4.39730E-005
 Component Sizing Information, Coil:Heating:Water, RETAIL_2_FLR_1 VAV BOX REHEAT COIL, Design Size U-Factor Times Area Value [W/K], 41.05889
Water Heating Coil Capacity Information,Coil:Heating:Water,RETAIL_2_FLR_1 VAV BOX REHEAT COIL,2044.89
 Component Sizing Information, AirTerminal:SingleDuct:Uncontrolled, ROOM_1_FLR_3 DIRECT AIR, Design Size Maximum Air Flow Rate [m3/s], 5.66400E-002
 Component Sizing Information, AirTerminal:SingleDuct:Uncontrolled, ROOM_1_FLR_3 DIRECT AIR, User-Specified Maximum Air Flow Rate [m3/s], 1.41600E-002
 Component Sizing Information, ZoneHVAC:FourPipeFanCoil, ROOM_1_FLR_3 FAN COIL, Design Size Maximum Supply Air Flow Rate [m3/s], 1.17012
 Component Sizing Information, Fan:ConstantVolume, ROOM_1_FLR_3 FAN COILFAN, Design Size Maximum Flow Rate [m3/s], 1.17012
 Component Sizing Information, ZoneHVAC:FourPipeFanCoil, ROOM_1_FLR_3 FAN COIL, Design Size Maximum Hot Water Flow [m3/s], 2.66792E-004
 Component Sizing Information, ZoneHVAC:FourPipeFanCoil, ROOM_1_FLR_3 FAN COIL, Design Size Maximum Cold Water Flow [m3/s], 6.32122E-004
 Component Sizing Information, Coil:Cooling:Water, ROOM_1_FLR_3 FAN COILCOOL COIL, Design Size Design Water Flow Rate [m3/s], 6.32122E-004
 Component Sizing Information, Coil:Cooling:Water, ROOM_1_FLR_3 FAN COILCOOL COIL, Design Size Design Air Flow Rate [m3/s], 1.17012
 Component Sizing Information, Coil:Cooling:Water, ROOM_1_FLR_3 FAN COILCOOL COIL, User-Specified Design Air Flow Rate [m3/s], 1.17012
 Component Sizing Information, Coil:Cooling:Water, ROOM_1_FLR_3 FAN COILCOOL COIL, Design Size Design Inlet Air Temperature [C], 23.99735
 Component Sizing Information, Coil:Cooling:Water, ROOM_1_FLR_3 FAN COILCOOL COIL, Design Size Design Inlet Water Temperature [C], 6.67000
 Component Sizing Information, Coil:Cooling:Water, ROOM_1_FLR_3 FAN COILCOOL COIL, Design Size Design Inlet Air Humidity Ratio, 8.74263E-003
 Component Sizing Information, Coil:Cooling:Water, ROOM_1_FLR_3 FAN COILCOOL COIL, Design Size Design Outlet Air Temperature [C], 12.00000
 Component Sizing Information, Coil:Cooling:Water, ROOM_1_FLR_3 FAN COILCOOL COIL, Design Size Design Outlet Air Humidity Ratio, 8.50000E-003
! <Water Cooling Coil Capacity Information>,Component Type,Name,Nominal Total Capacity {W},Nominal Sensible Capacity {W},Nominal Latent Capacity {W},Nominal Sensible Heat Ratio, Nominal Coil UA Value {W/C}, Nominal Coil Surface Area {m2}
Water Cooling Coil Capacity Information,Coil:Cooling:Water,ROOM_1_FLR_3 FAN COILCOOL COIL,23968.52,17750.11,6218.41,0.74,2791.29,28.31
 Component Sizing Information, Coil:Heating:Water, ROOM_1_FLR_3 FAN COILHEAT COIL, Design Size Design Coil Load [W], 12392.14010
 Component Sizing Information, Coil:Heating:Water, ROOM_1_FLR_3 FAN COILHEAT COIL, Design Size Maximum Water Flow Rate [m3/s], 2.66792E-004
 Component Sizing Information, Coil:Heating:Water, ROOM_1_FLR_3 FAN COILHEAT COIL, Design Size U-Factor Times Area Value [W/K], 281.85765
Water Heating Coil Capacity Information,Coil:Heating:Water,ROOM_1_FLR_3 FAN COILHEAT COIL,13276.85
 Component Sizing Information, AirTerminal:SingleDuct:Uncontrolled, ROOM_1_FLR_6 DIRECT AIR, Design Size Maximum Air Flow Rate [m3/s], 1.41600E-002
 Component Sizing Information, AirTerminal:SingleDuct:Uncontrolled, ROOM_1_FLR_6 DIRECT AIR, User-Specified Maximum Air Flow Rate [m3/s], 1.41600E-002
 Component Sizing Information, ZoneHVAC:FourPipeFanCoil, ROOM_1_FLR_6 FAN COIL, Design Size Maximum Supply Air Flow Rate [m3/s], 0.32002
 Component Sizing Information, Fan:ConstantVolume, ROOM_1_FLR_6 FAN COILFAN, Design Size Maximum Flow Rate [m3/s], 0.32002
 Component Sizing Information, ZoneHVAC:FourPipeFanCoil, ROOM_1_FLR_6 FAN COIL, Design Size Maximum Hot Water Flow [m3/s], 7.97402E-005
 Component Sizing Information, ZoneHVAC:FourPipeFanCoil, ROOM_1_FLR_6 FAN COIL, Design Size Maximum Cold Water Flow [m3/s], 1.72235E-004
 Component Sizing Information, Coil:Cooling:Water, ROOM_1_FLR_6 FAN COILCOOL COIL, Design Size Design Water Flow Rate [m3/s], 1.72235E-004
 Component Sizing Information, Coil:Cooling:Water, ROOM_1_FLR_6 FAN COILCOOL COIL, Design Size Design Air Flow Rate [m3/s], 0.32002
 Component Sizing Information, Coil:Cooling:Water, ROOM_1_FLR_6 FAN COILCOOL COIL, User-Specified Design Air Flow Rate [m3/s], 0.32002
 Component Sizing Information, Coil:Cooling:Water, ROOM_1_FLR_6 FAN COILCOOL COIL, Design Size Design Inlet Air Temperature [C], 23.99742
 Component Sizing Information, Coil:Cooling:Water, ROOM_1_FLR_6 FAN COILCOOL COIL, Design Size Design Inlet Water Temperature [C], 6.67000
 Component Sizing Information, Coil:Cooling:Water, ROOM_1_FLR_6 FAN COILCOOL COIL, Design Size Design Inlet Air Humidity Ratio, 8.72370E-003
 Component Sizing Information, Coil:Cooling:Water, ROOM_1_FLR_6 FAN COILCOOL COIL, Design Size Design Outlet Air Temperature [C], 12.00000
 Component Sizing Information, Coil:Cooling:Water, ROOM_1_FLR_6 FAN COILCOOL COIL, Design Size Design Outlet Air Humidity Ratio, 8.50000E-003
Water Cooling Coil Capacity Information,Coil:Cooling:Water,ROOM_1_FLR_6 FAN COILCOOL COIL,6541.33,4848.11,1693.22,0.74,761.82,7.73
 Component Sizing Information, Coil:Heating:Water, ROOM_1_FLR_6 FAN COILHEAT COIL, Design Size Design Coil Load [W], 3703.83259
 Component Sizing Information, Coil:Heating:Water, ROOM_1_FLR_6 FAN COILHEAT COIL, Design Size Maximum Water Flow Rate [m3/s], 7.97402E-005
 Component Sizing Information, Coil:Heating:Water, ROOM_1_FLR_6 FAN COILHEAT COIL, Design Size U-Factor Times Area Value [W/K], 84.24202
Water Heating Coil Capacity Information,Coil:Heating:Water,ROOM_1_FLR_6 FAN COILHEAT COIL,3968.22
 Component Sizing Information, AirTerminal:SingleDuct:Uncontrolled, ROOM_2_FLR_3 DIRECT AIR, Design Size Maximum Air Flow Rate [m3/s], 5.66400E-002
 Component Sizing Information, AirTerminal:SingleDuct:Uncontrolled, ROOM_2_FLR_3 DIRECT AIR, User-Specified Maximum Air Flow Rate [m3/s], 1.41600E-002
 Component Sizing Information, ZoneHVAC:FourPipeFanCoil, ROOM_2_FLR_3 FAN COIL, Design Size Maximum Supply Air Flow Rate [m3/s], 1.15578
 Component Sizing Information, Fan:ConstantVolume, ROOM_2_FLR_3 FAN COILFAN, Design Size Maximum Flow Rate [m3/s], 1.15578
 Component Sizing Information, ZoneHVAC:FourPipeFanCoil, ROOM_2_FLR_3 FAN COIL, Design Size Maximum Hot Water Flow [m3/s], 2.66928E-004
 Component Sizing Information, ZoneHVAC:FourPipeFanCoil, ROOM_2_FLR_3 FAN COIL, Design Size Maximum Cold Water Flow [m3/s], 6.24993E-004
 Component Sizing Information, Coil:Cooling:Water, ROOM_2_FLR_3 FAN COILCOOL COIL, Design Size Design Water Flow Rate [m3/s], 6.24993E-004
 Component Sizing Information, Coil:Cooling:Water, ROOM_2_FLR_3 FAN COILCOOL COIL, Design Size Design Air Flow Rate [m3/s], 1.15578
 Component Sizing Information, Coil:Cooling:Water, ROOM_2_FLR_3 FAN COILCOOL COIL, User-Specified Design Air Flow Rate [m3/s], 1.15578
 Component Sizing Information, Coil:Cooling:Water, ROOM_2_FLR_3 FAN COILCOOL COIL, Design Size Design Inlet Air Temperature [C], 23.99735
 Component Sizing Information, Coil:Cooling:Water, ROOM_2_FLR_3 FAN COILCOOL COIL, Design Size Design Inlet Water Temperature [C], 6.67000
 Component Sizing Information, Coil:Cooling:Water, ROOM_2_FLR_3 FAN COILCOOL COIL, Design Size Design Inlet Air Humidity Ratio, 8.74765E-003
 Component Sizing Information, Coil:Cooling:Water, ROOM_2_FLR_3 FAN COILCOOL COIL, Design Size Design Outlet Air Temperature [C], 12.00000
 Component Sizing Information, Coil:Cooling:Water, ROOM_2_FLR_3 FAN COILCOOL COIL, Design Size Design Outlet Air Humidity Ratio, 8.50000E-003
Water Cooling Coil Capacity Information,Coil:Cooling:Water,ROOM_2_FLR_3 FAN COILCOOL COIL,23687.99,17538.65,6149.33,0.74,2758.58,27.98
 Component Sizing Information, Coil:Heating:Water, ROOM_2_FLR_3 FAN COILHEAT COIL, Design Size Design Coil Load [W], 12398.48525
 Component Sizing Information, Coil:Heating:Water, ROOM_2_FLR_3 FAN COILHEAT COIL, Design Size Maximum Water Flow Rate [m3/s], 2.66928E-004
 Component Sizing Information, Coil:Heating:Water, ROOM_2_FLR_3 FAN COILHEAT COIL, Design Size U-Factor Times Area Value [W/K], 282.00195
Water Heating Coil Capacity Information,Coil:Heating:Water,ROOM_2_FLR_3 FAN COILHEAT COIL,13283.65
 Component Sizing Information, AirTerminal:SingleDuct:Uncontrolled, ROOM_2_FLR_6 DIRECT AIR, Design Size Maximum Air Flow Rate [m3/s], 1.41600E-002
 Component Sizing Information, AirTerminal:SingleDuct:Uncontrolled, ROOM_2_FLR_6 DIRECT AIR, User-Specified Maximum Air Flow Rate [m3/s], 1.41600E-002
 Component Sizing Information, ZoneHVAC:FourPipeFanCoil, ROOM_2_FLR_6 FAN COIL, Design Size Maximum Supply Air Flow Rate [m3/s], 0.31662
 Component Sizing Information, Fan:ConstantVolume, ROOM_2_FLR_6 FAN COILFAN, Design Size Maximum Flow Rate [m3/s], 0.31662
 Component Sizing Information, ZoneHVAC:FourPipeFanCoil, ROOM_2_FLR_6 FAN COIL, Design Size Maximum Hot Water Flow [m3/s], 7.98890E-005
 Component Sizing Information, ZoneHVAC:FourPipeFanCoil, ROOM_2_FLR_6 FAN COIL, Design Size Maximum Cold Water Flow [m3/s], 1.70460E-004
 Component Sizing Information, Coil:Cooling:Water, ROOM_2_FLR_6 FAN COILCOOL COIL, Design Size Design Water Flow Rate [m3/s], 1.70460E-004
 Component Sizing Information, Coil:Cooling:Water, ROOM_2_FLR_6 FAN COILCOOL COIL, Design Size Design Air Flow Rate [m3/s], 0.31662
 Component Sizing Information, Coil:Cooling:Water, ROOM_2_FLR_6 FAN COILCOOL COIL, User-Specified Design Air Flow Rate [m3/s], 0.31662
 Component Sizing Information, Coil:Cooling:Water, ROOM_2_FLR_6 FAN COILCOOL COIL, Design Size Design Inlet Air Temperature [C], 23.99740
 Component Sizing Information, Coil:Cooling:Water, ROOM_2_FLR_6 FAN COILCOOL COIL, Design Size Design Inlet Water Temperature [C], 6.67000
 Component Sizing Information, Coil:Cooling:Water, ROOM_2_FLR_6 FAN COILCOOL COIL, Design Size Design Inlet Air Humidity Ratio, 8.72538E-003
 Component Sizing Information, Coil:Cooling:Water, ROOM_2_FLR_6 FAN COILCOOL COIL, Design Size Design Outlet Air Temperature [C], 12.00000
 Component Sizing Information, Coil:Cooling:Water, ROOM_2_FLR_6 FAN COILCOOL COIL, Design Size Design Outlet Air Humidity Ratio, 8.50000E-003
Water Cooling Coil Capacity Information,Coil:Cooling:Water,ROOM_2_FLR_6 FAN COILCOOL COIL,6472.99,4797.12,1675.87,0.74,753.86,7.65
 Component Sizing Information, Coil:Heating:Water, ROOM_2_FLR_6 FAN COILHEAT COIL, Design Size Design Coil Load [W], 3710.74551
 Component Sizing Information, Coil:Heating:Water, ROOM_2_FLR_6 FAN COILHEAT COIL, Design Size Maximum Water Flow Rate [m3/s], 7.98890E-005
 Component Sizing Information, Coil:Heating:Water, ROOM_2_FLR_6 FAN COILHEAT COIL, Design Size U-Factor Times Area Value [W/K], 84.39924
Water Heating Coil Capacity Information,Coil:Heating:Water,ROOM_2_FLR_6 FAN COILHEAT COIL,3975.63
 Component Sizing Information, AirTerminal:SingleDuct:Uncontrolled, ROOM_3_MULT19_FLR_3 DIRECT AIR, Design Size Maximum Air Flow Rate [m3/s], 20.44704
 Component Sizing Information, AirTerminal:SingleDuct:Uncontrolled, ROOM_3_MULT19_FLR_3 DIRECT AIR, User-Specified Maximum Air Flow Rate [m3/s], 0.26904
 Component Sizing Information, ZoneHVAC:FourPipeFanCoil, ROOM_3_MULT19_FLR_3 FAN COIL, Design Size Maximum Supply Air Flow Rate [m3/s], 20.44704
 Component Sizing Information, Fan:ConstantVolume, ROOM_3_MULT19_FLR_3 FAN COILFAN, Design Size Maximum Flow Rate [m3/s], 20.44704
 Component Sizing Information, ZoneHVAC:FourPipeFanCoil, ROOM_3_MULT19_FLR_3 FAN COIL, Design Size Maximum Hot Water Flow [m3/s], 1.01998E-002
 Component Sizing Information, ZoneHVAC:FourPipeFanCoil, ROOM_3_MULT19_FLR_3 FAN COIL, Design Size Maximum Cold Water Flow [m3/s], 1.11195E-002
 Component Sizing Information, Coil:Cooling:Water, ROOM_3_MULT19_FLR_3 FAN COILCOOL COIL, Design Size Design Water Flow Rate [m3/s], 1.11195E-002
 Component Sizing Information, Coil:Cooling:Water, ROOM_3_MULT19_FLR_3 FAN COILCOOL COIL, Design Size Design Air Flow Rate [m3/s], 20.44704
 Component Sizing Information, Coil:Cooling:Water, ROOM_3_MULT19_FLR_3 FAN COILCOOL COIL, User-Specified Design Air Flow Rate [m3/s], 20.44704
 Component Sizing Information, Coil:Cooling:Water, ROOM_3_MULT19_FLR_3 FAN COILCOOL COIL, Design Size Design Inlet Air Temperature [C], 23.99715
 Component Sizing Information, Coil:Cooling:Water, ROOM_3_MULT19_FLR_3 FAN COILCOOL COIL, Design Size Design Inlet Water Temperature [C], 6.67000
 Component Sizing Information, Coil:Cooling:Water, ROOM_3_MULT19_FLR_3 FAN COILCOOL COIL, Design Size Design Inlet Air Humidity Ratio, 8.78038E-003
 Component Sizing Information, Coil:Cooling:Water, ROOM_3_MULT19_FLR_3 FAN COILCOOL COIL, Design Size Design Outlet Air Temperature [C], 12.49000
 Component Sizing Information, Coil:Cooling:Water, ROOM_3_MULT19_FLR_3 FAN COILCOOL COIL, Design Size Design Outlet Air Humidity Ratio, 8.30590E-003
Water Cooling Coil Capacity Information,Coil:Cooling:Water,ROOM_3_MULT19_FLR_3 FAN COILCOOL COIL,420258.44,310807.41,109451.04,0.74,48902.68,496.00
 Component Sizing Information, Coil:Heating:Water, ROOM_3_MULT19_FLR_3 FAN COILHEAT COIL, Design Size Design Coil Load [W], 473767.02912
 Component Sizing Information, Coil:Heating:Water, ROOM_3_MULT19_FLR_3 FAN COILHEAT COIL, Design Size Maximum Water Flow Rate [m3/s], 1.01998E-002
 Component Sizing Information, Coil:Heating:Water, ROOM_3_MULT19_FLR_3 FAN COILHEAT COIL, Design Size U-Factor Times Area Value [W/K], 10775.93428
Water Heating Coil Capacity Information,Coil:Heating:Water,ROOM_3_MULT19_FLR_3 FAN COILHEAT COIL,507600.62
 Component Sizing Information, AirTerminal:SingleDuct:Uncontrolled, ROOM_3_MULT9_FLR_6 DIRECT AIR, Design Size Maximum Air Flow Rate [m3/s], 1.14696
 Component Sizing Information, AirTerminal:SingleDuct:Uncontrolled, ROOM_3_MULT9_FLR_6 DIRECT AIR, User-Specified Maximum Air Flow Rate [m3/s], 0.12744
[...]
 Component Sizing Information, Coil:Heating:Water, ROOM_5_FLR_3 FAN COILHEAT COIL, Design Size Maximum Water Flow Rate [m3/s], 2.65384E-004
 Component Sizing Information, Coil:Heating:Water, ROOM_5_FLR_3 FAN COILHEAT COIL, Design Size U-Factor Times Area Value [W/K], 280.37047
Water Heating Coil Capacity Information,Coil:Heating:Water,ROOM_5_FLR_3 FAN COILHEAT COIL,13206.80
 Component Sizing Information, AirTerminal:SingleDuct:Uncontrolled, ROOM_6_FLR_3 DIRECT AIR, Design Size Maximum Air Flow Rate [m3/s], 5.66400E-002
 Component Sizing Information, AirTerminal:SingleDuct:Uncontrolled, ROOM_6_FLR_3 DIRECT AIR, User-Specified Maximum Air Flow Rate [m3/s], 1.41600E-002
 Component Sizing Information, ZoneHVAC:FourPipeFanCoil, ROOM_6_FLR_3 FAN COIL, Design Size Maximum Supply Air Flow Rate [m3/s], 1.10110
 Component Sizing Information, Fan:ConstantVolume, ROOM_6_FLR_3 FAN COILFAN, Design Size Maximum Flow Rate [m3/s], 1.10110
 Component Sizing Information, ZoneHVAC:FourPipeFanCoil, ROOM_6_FLR_3 FAN COIL, Design Size Maximum Hot Water Flow [m3/s], 2.65518E-004
 Component Sizing Information, ZoneHVAC:FourPipeFanCoil, ROOM_6_FLR_3 FAN COIL, Design Size Maximum Cold Water Flow [m3/s], 5.57718E-004
 Component Sizing Information, Coil:Cooling:Water, ROOM_6_FLR_3 FAN COILCOOL COIL, Design Size Design Water Flow Rate [m3/s], 5.57718E-004
 Component Sizing Information, Coil:Cooling:Water, ROOM_6_FLR_3 FAN COILCOOL COIL, Design Size Design Air Flow Rate [m3/s], 1.10110
 Component Sizing Information, Coil:Cooling:Water, ROOM_6_FLR_3 FAN COILCOOL COIL, User-Specified Design Air Flow Rate [m3/s], 1.10110
 Component Sizing Information, Coil:Cooling:Water, ROOM_6_FLR_3 FAN COILCOOL COIL, Design Size Design Inlet Air Temperature [C], 23.99743
 Component Sizing Information, Coil:Cooling:Water, ROOM_6_FLR_3 FAN COILCOOL COIL, Design Size Design Inlet Water Temperature [C], 6.67000
 Component Sizing Information, Coil:Cooling:Water, ROOM_6_FLR_3 FAN COILCOOL COIL, Design Size Design Inlet Air Humidity Ratio, 8.74672E-003
 Component Sizing Information, Coil:Cooling:Water, ROOM_6_FLR_3 FAN COILCOOL COIL, Design Size Design Outlet Air Temperature [C], 12.83000
 Component Sizing Information, Coil:Cooling:Water, ROOM_6_FLR_3 FAN COILCOOL COIL, Design Size Design Outlet Air Humidity Ratio, 8.48650E-003
Water Cooling Coil Capacity Information,Coil:Cooling:Water,ROOM_6_FLR_3 FAN COILCOOL COIL,21121.29,15925.95,5195.35,0.75,2330.42,23.64
 Component Sizing Information, Coil:Heating:Water, ROOM_6_FLR_3 FAN COILHEAT COIL, Design Size Design Coil Load [W], 12332.96225
 Component Sizing Information, Coil:Heating:Water, ROOM_6_FLR_3 FAN COILHEAT COIL, Design Size Maximum Water Flow Rate [m3/s], 2.65518E-004
 Component Sizing Information, Coil:Heating:Water, ROOM_6_FLR_3 FAN COILHEAT COIL, Design Size U-Factor Times Area Value [W/K], 280.51177
Water Heating Coil Capacity Information,Coil:Heating:Water,ROOM_6_FLR_3 FAN COILHEAT COIL,13213.45
 Component Sizing Information, AirTerminal:SingleDuct:VAV:Reheat, STORAGE_FLR_1 VAV BOX COMPONENT, Design Size Maximum Air Flow Rate [m3/s], 7.20170E-002
 Component Sizing Information, AirTerminal:SingleDuct:VAV:Reheat, STORAGE_FLR_1 VAV BOX COMPONENT, Design Size Maximum Flow per Zone Floor Area during Reheat [m3/s-m2], 7.60000E-004
 Component Sizing Information, AirTerminal:SingleDuct:VAV:Reheat, STORAGE_FLR_1 VAV BOX COMPONENT, Design Size Maximum Flow Fraction during Reheat [], 1.00000
 Component Sizing Information, AirTerminal:SingleDuct:VAV:Reheat, STORAGE_FLR_1 VAV BOX COMPONENT, Design Size Maximum Reheat Water Flow Rate [m3/s], 0.00000
 Component Sizing Information, AirTerminal:SingleDuct:VAV:Reheat, STORAGE_FLR_1 VAV BOX COMPONENT, Design Size Reheat Coil Sizing Air Volume Flow Rate [m3/s], 2.16051E-002
 Component Sizing Information, Coil:Heating:Water, STORAGE_FLR_1 VAV BOX REHEAT COIL, Design Size Design Coil Load [W], 0.00000
 Component Sizing Information, Coil:Heating:Water, STORAGE_FLR_1 VAV BOX REHEAT COIL, Design Size Maximum Water Flow Rate [m3/s], 0.00000
 Component Sizing Information, Coil:Heating:Water, STORAGE_FLR_1 VAV BOX REHEAT COIL, Design Size U-Factor Times Area Value [W/K], 1.00000
Water Heating Coil Capacity Information,Coil:Heating:Water,STORAGE_FLR_1 VAV BOX REHEAT COIL,0.00
 Component Sizing Information, Branch, FLR_3_DOAS AIR LOOP MAIN BRANCH, Maximum Flow Rate [m3/s], 2.37888
 Component Sizing Information, Branch, FLR_6_DOAS AIR LOOP MAIN BRANCH, Maximum Flow Rate [m3/s], 0.15576
 Component Sizing Information, Branch, VAV WITH REHEAT AIR LOOP MAIN BRANCH, Maximum Flow Rate [m3/s], 27.07651
 Component Sizing Information, AirLoopHVAC, VAV WITH REHEAT, Design Supply Air Flow Rate [m3/s], 27.07651
 Component Sizing Information, Coil:Cooling:Water, FLR_3_DOAS_COOLC, Design Size Design Coil Load [W], 124530.13200
 Component Sizing Information, Coil:Cooling:Water, FLR_3_DOAS_COOLC, Design Size Design Water Flow Rate [m3/s], 4.44785E-003
 Component Sizing Information, Coil:Cooling:Water, FLR_3_DOAS_COOLC, Design Size Design Air Flow Rate [m3/s], 2.32723
 Component Sizing Information, Coil:Cooling:Water, FLR_3_DOAS_COOLC, Design Size Design Inlet Air Temperature [C], 30.69863
 Component Sizing Information, Coil:Cooling:Water, FLR_3_DOAS_COOLC, Design Size Design Inlet Water Temperature [C], 6.67000
 Component Sizing Information, Coil:Cooling:Water, FLR_3_DOAS_COOLC, Design Size Design Outlet Air Temperature [C], 12.82000
 Component Sizing Information, Coil:Cooling:Water, FLR_3_DOAS_COOLC, Design Size Design Inlet Air Humidity Ratio, 1.87829E-002
 Component Sizing Information, Coil:Cooling:Water, FLR_3_DOAS_COOLC, Design Size Design Outlet Air Humidity Ratio, 8.48989E-003
Water Cooling Coil Capacity Information,Coil:Cooling:Water,FLR_3_DOAS_COOLC,77745.91,48991.98,28753.92,0.63,9637.99,97.75
 Component Sizing Information, Coil:Heating:Water, FLR_3_DOAS_HEATC, Design Size Design Coil Load [W], 108499.94555
 Component Sizing Information, Coil:Heating:Water, FLR_3_DOAS_HEATC, Design Size Maximum Water Flow Rate [m3/s], 2.33591E-003
 Component Sizing Information, Coil:Heating:Water, FLR_3_DOAS_HEATC, Design Size U-Factor Times Area Value [W/K], 1438.52817
Water Heating Coil Capacity Information,Coil:Heating:Water,FLR_3_DOAS_HEATC,69377.53
 Component Sizing Information, Fan:ConstantVolume, FLR_3_DOAS_FAN, Design Size Maximum Flow Rate [m3/s], 2.37888
 Component Sizing Information, Controller:WaterCoil, FLR_3_DOAS_COOLC_CONTROLLER, Maximum Actuated Flow [m3/s], 4.44785E-003
 Component Sizing Information, Controller:WaterCoil, FLR_3_DOAS_COOLC_CONTROLLER, Controller Convergence Tolerance, 1.07061E-004
 Component Sizing Information, Controller:WaterCoil, FLR_3_DOAS_HEATC_CONTROLLER, Maximum Actuated Flow [m3/s], 2.33591E-003
 Component Sizing Information, Coil:Cooling:Water, FLR_6_DOAS_COOLC, Design Size Design Coil Load [W], 7936.30991
 Component Sizing Information, Coil:Cooling:Water, FLR_6_DOAS_COOLC, Design Size Design Water Flow Rate [m3/s], 2.83462E-004
 Component Sizing Information, Coil:Cooling:Water, FLR_6_DOAS_COOLC, Design Size Design Air Flow Rate [m3/s], 0.14996
 Component Sizing Information, Coil:Cooling:Water, FLR_6_DOAS_COOLC, Design Size Design Inlet Air Temperature [C], 30.16471
 Component Sizing Information, Coil:Cooling:Water, FLR_6_DOAS_COOLC, Design Size Design Inlet Water Temperature [C], 6.67000
 Component Sizing Information, Coil:Cooling:Water, FLR_6_DOAS_COOLC, Design Size Design Outlet Air Temperature [C], 12.82000
 Component Sizing Information, Coil:Cooling:Water, FLR_6_DOAS_COOLC, Design Size Design Inlet Air Humidity Ratio, 1.87829E-002
 Component Sizing Information, Coil:Cooling:Water, FLR_6_DOAS_COOLC, Design Size Design Outlet Air Humidity Ratio, 8.48989E-003
Water Cooling Coil Capacity Information,Coil:Cooling:Water,FLR_6_DOAS_COOLC,5005.16,3154.91,1850.26,0.63,622.02,6.31
 Component Sizing Information, Coil:Heating:Water, FLR_6_DOAS_HEATC, Design Size Design Coil Load [W], 7104.16310
 Component Sizing Information, Coil:Heating:Water, FLR_6_DOAS_HEATC, Design Size Maximum Water Flow Rate [m3/s], 1.52946E-004
 Component Sizing Information, Coil:Heating:Water, FLR_6_DOAS_HEATC, Design Size U-Factor Times Area Value [W/K], 94.18934
Water Heating Coil Capacity Information,Coil:Heating:Water,FLR_6_DOAS_HEATC,4542.58
 Component Sizing Information, Fan:ConstantVolume, FLR_6_DOAS_FAN, Design Size Maximum Flow Rate [m3/s], 0.15576
 Component Sizing Information, Controller:WaterCoil, FLR_6_DOAS_COOLC_CONTROLLER, Maximum Actuated Flow [m3/s], 2.83462E-004
 Component Sizing Information, Controller:WaterCoil, FLR_6_DOAS_COOLC_CONTROLLER, Controller Convergence Tolerance, 1.00000E-003
 Component Sizing Information, Controller:WaterCoil, FLR_6_DOAS_HEATC_CONTROLLER, Maximum Actuated Flow [m3/s], 1.52946E-004
 Component Sizing Information, Controller:OutdoorAir, VAV WITH REHEAT_OA_CONTROLLER, Maximum Outdoor Air Flow Rate [m3/s], 27.07651
 Component Sizing Information, Controller:OutdoorAir, VAV WITH REHEAT_OA_CONTROLLER, Minimum Outdoor Air Flow Rate [m3/s], 11.95143
 Component Sizing Information, Coil:Cooling:Water, VAV WITH REHEAT_COOLC, Design Size Design Coil Load [W], 882991.14360
 Component Sizing Information, Coil:Cooling:Water, VAV WITH REHEAT_COOLC, Design Size Design Water Flow Rate [m3/s], 3.15379E-002
 Component Sizing Information, Coil:Cooling:Water, VAV WITH REHEAT_COOLC, Design Size Design Air Flow Rate [m3/s], 26.51358
 Component Sizing Information, Coil:Cooling:Water, VAV WITH REHEAT_COOLC, Design Size Design Inlet Air Temperature [C], 26.37074
 Component Sizing Information, Coil:Cooling:Water, VAV WITH REHEAT_COOLC, Design Size Design Inlet Water Temperature [C], 6.67000
 Component Sizing Information, Coil:Cooling:Water, VAV WITH REHEAT_COOLC, Design Size Design Outlet Air Temperature [C], 12.80000
 Component Sizing Information, Coil:Cooling:Water, VAV WITH REHEAT_COOLC, Design Size Design Inlet Air Humidity Ratio, 1.36225E-002
 Component Sizing Information, Coil:Cooling:Water, VAV WITH REHEAT_COOLC, Design Size Design Outlet Air Humidity Ratio, 8.47862E-003
Water Cooling Coil Capacity Information,Coil:Cooling:Water,VAV WITH REHEAT_COOLC,784968.82,511946.96,273021.85,0.65,93932.21,952.71
 Component Sizing Information, Coil:Heating:Water, VAV WITH REHEAT_HEATC, Design Size Design Coil Load [W], 358007.73613
 Component Sizing Information, Coil:Heating:Water, VAV WITH REHEAT_HEATC, Design Size Maximum Water Flow Rate [m3/s], 7.70758E-003
 Component Sizing Information, Coil:Heating:Water, VAV WITH REHEAT_HEATC, Design Size U-Factor Times Area Value [W/K], 4703.40024
Water Heating Coil Capacity Information,Coil:Heating:Water,VAV WITH REHEAT_HEATC,228911.83
 Component Sizing Information, Fan:VariableVolume, VAV WITH REHEAT_FAN, Design Size Maximum Flow Rate [m3/s], 27.07651
 Component Sizing Information, Controller:WaterCoil, VAV WITH REHEAT_COOLC_CONTROLLER, Maximum Actuated Flow [m3/s], 3.15379E-002
 Component Sizing Information, Controller:WaterCoil, VAV WITH REHEAT_COOLC_CONTROLLER, Controller Convergence Tolerance, 1.50990E-005
 Component Sizing Information, Controller:WaterCoil, VAV WITH REHEAT_HEATC_CONTROLLER, Maximum Actuated Flow [m3/s], 7.70758E-003
 Component Sizing Information, PlantLoop, COOLSYS1, Maximum Loop Flow Rate [m3/s], 6.19321E-002
 Component Sizing Information, PlantLoop, COOLSYS1, Plant Loop Volume [m3], 69.67363
 Component Sizing Information, Pump:VariableSpeed, COOLSYS1 PUMP, Rated Flow Rate [m3/s], 6.19321E-002
 Component Sizing Information, Pump:VariableSpeed, COOLSYS1 PUMP, Rated Power Consumption [W], 15822.86162
 Component Sizing Information, Chiller:Electric:EIR, COOLSYS1 CHILLER 1, Design Size Reference Chilled Water Flow Rate [m3/s], 3.09661E-002
 Component Sizing Information, Chiller:Electric:EIR, COOLSYS1 CHILLER 1, Design Size Reference Capacity [W], 866967.16310
 Component Sizing Information, Chiller:Electric:EIR, COOLSYS1 CHILLER 1, User-Specified Reference Condenser Water Flow Rate [m3/s], 1.10000E-003
! <Chiller Standard Rating Information>, Component Type, Component Name, IPLV in SI Units {W/W}, IPLV in IP Units {Btu/W-h}
 Chiller Standard Rating Information, Chiller:Electric:EIR, COOLSYS1 CHILLER 1, 7.28, 24.83
 Component Sizing Information, Chiller:Electric:EIR, COOLSYS1 CHILLER 2, Design Size Reference Chilled Water Flow Rate [m3/s], 3.09661E-002
 Component Sizing Information, Chiller:Electric:EIR, COOLSYS1 CHILLER 2, Design Size Reference Capacity [W], 866967.16310
 Component Sizing Information, Chiller:Electric:EIR, COOLSYS1 CHILLER 2, User-Specified Reference Condenser Water Flow Rate [m3/s], 1.10000E-003
 Chiller Standard Rating Information, Chiller:Electric:EIR, COOLSYS1 CHILLER 2, 7.28, 24.83
 Component Sizing Information, PlantLoop, HEATSYS1, Maximum Loop Flow Rate [m3/s], 3.60832E-002
 Component Sizing Information, PlantLoop, HEATSYS1, Plant Loop Volume [m3], 40.59357
 Component Sizing Information, Pump:VariableSpeed, HEATSYS1 PUMP, Rated Flow Rate [m3/s], 3.60832E-002
 Component Sizing Information, Pump:VariableSpeed, HEATSYS1 PUMP, Rated Power Consumption [W], 9218.78895
 Component Sizing Information, Boiler:HotWater, HEATSYS1 BOILER, Design Size Nominal Capacity [W], 1682554.73332
 Component Sizing Information, Boiler:HotWater, HEATSYS1 BOILER, Design Size Design Water Flow Rate [m3/s], 3.60832E-002
 Component Sizing Information, PlantLoop, SWHSYS1, Maximum Loop Flow Rate [m3/s], 4.22952E-003
 Component Sizing Information, PlantLoop, SWHSYS1, Plant Loop Volume [m3], 4.75821
 Component Sizing Information, Pump:VariableSpeed, SWHSYS1 PUMP, Rated Flow Rate [m3/s], 4.22952E-003
 Component Sizing Information, Pump:VariableSpeed, SWHSYS1 PUMP, Rated Power Consumption [W], 1080.58762
 Component Sizing Information, WaterHeater:Mixed, SWHSYS1 WATER HEATER, Use Side Design Flow Rate [m3/s], 4.22952E-003
Water Heater Information,WaterHeater:Mixed,SWHSYS1 WATER HEATER,2.0000,845000.0,0.348,0.6803
! <Environment>,Environment Name,Environment Type, Start Date, End Date, Start DayOfWeek, Duration {#days}, Source:Start DayOfWeek,  Use Daylight Saving, Use Holidays, Apply Weekend Holiday Rule,  Use Rain Values, Use Snow Values
! <Environment:Special Days>, Special Day Name, Special Day Type, Source, Start Date, Duration {#days}
! <Environment:Daylight Saving>, Daylight Saving Indicator, Source, Start Date, End Date
! <Environment:WarmupDays>, NumberofWarmupDays
Environment,Chicago Ohare Intl Ap IL USA TMY3 WMO#=725300,WeatherFileRunPeriod,08/01,08/31,Friday,31,Use RunPeriod Specified Day,No,No,No,Yes,Yes
Environment:Daylight Saving,Yes,InputFile,03/09,11/02
Environment:Special Days,NEW YEARS DAY,Holiday,InputFile,01/01,  1
Environment:Special Days,VETERANS DAY,Holiday,InputFile,11/11,  1
Environment:Special Days,CHRISTMAS,Holiday,InputFile,12/25,  1
Environment:Special Days,INDEPENDENCE DAY,Holiday,InputFile,07/04,  1
Environment:Special Days,MLK DAY,Holiday,InputFile,01/20,  1
Environment:Special Days,PRESIDENTS DAY,Holiday,InputFile,02/17,  1
Environment:Special Days,MEMORIAL DAY,Holiday,InputFile,05/26,  1
Environment:Special Days,LABOR DAY,Holiday,InputFile,09/01,  1
Environment:Special Days,COLUMBUS DAY,Holiday,InputFile,10/13,  1
Environment:Special Days,THANKSGIVING,Holiday,InputFile,11/27,  1
Environment:WarmupDays,  9
! <Warmup Convergence Information>,Zone Name,Environment Type/Name,Average Warmup Temperature Difference {deltaC},Std Dev Warmup Temperature Difference {deltaC},Max Temperature Pass/Fail Convergence,Min Temperature Pass/Fail Convergence,Average Warmup Load Difference {W},Std Dev Warmup Load Difference {W},Heating Load Pass/Fail Convergence,Cooling Load Pass/Fail Convergence
 Warmup Convergence Information,BANQUET_FLR_6,RunPeriod: Chicago Ohare Intl Ap IL USA TMY3 WMO#=725300,0.7953094926,1.3990891209,Pass,Pass,0.1823156139,0.3712897027,Pass,Pass
 Warmup Convergence Information,BASEMENT,RunPeriod: Chicago Ohare Intl Ap IL USA TMY3 WMO#=725300,0.1194506822,0.1672050455,Pass,Pass,0.1690933282,0.3721013242,Pass,Pass
 Warmup Convergence Information,CAFE_FLR_1,RunPeriod: Chicago Ohare Intl Ap IL USA TMY3 WMO#=725300,0.5843414003,0.9468148985,Pass,Pass,0.1805655567,0.3735390636,Pass,Pass
 Warmup Convergence Information,CORRIDOR_FLR_3,RunPeriod: Chicago Ohare Intl Ap IL USA TMY3 WMO#=725300,3.6493053975E-002,4.5190545819E-002,Pass,Pass,0.1673119238,0.3726178477,Pass,Pass
 Warmup Convergence Information,CORRIDOR_FLR_6,RunPeriod: Chicago Ohare Intl Ap IL USA TMY3 WMO#=725300,0.1007690200,0.1090784699,Pass,Pass,0.1691218005,0.3731764666,Pass,Pass
 Warmup Convergence Information,DINING_FLR_6,RunPeriod: Chicago Ohare Intl Ap IL USA TMY3 WMO#=725300,0.7893318855,1.4005876027,Pass,Pass,0.1835959387,0.3707361151,Pass,Pass
 Warmup Convergence Information,KITCHEN_FLR_6,RunPeriod: Chicago Ohare Intl Ap IL USA TMY3 WMO#=725300,0.9674854928,1.7670437210,Pass,Pass,0.1998686624,0.3953741098,Pass,Pass
 Warmup Convergence Information,LAUNDRY_FLR_1,RunPeriod: Chicago Ohare Intl Ap IL USA TMY3 WMO#=725300,1.0171122053,1.7285753189,Pass,Pass,0.3005596181,0.7078269614,Pass,Pass
 Warmup Convergence Information,LOBBY_FLR_1,RunPeriod: Chicago Ohare Intl Ap IL USA TMY3 WMO#=725300,0.2709230791,0.4128281895,Pass,Pass,0.1698367142,0.3699740317,Pass,Pass
 Warmup Convergence Information,MECH_FLR_1,RunPeriod: Chicago Ohare Intl Ap IL USA TMY3 WMO#=725300,5.3175701086E-002,5.8034035324E-002,Pass,Pass,0.1687068092,0.3715660383,Pass,Pass
 Warmup Convergence Information,RETAIL_1_FLR_1,RunPeriod: Chicago Ohare Intl Ap IL USA TMY3 WMO#=725300,0.3246665128,0.5080998538,Pass,Pass,0.1798175989,0.3707992852,Pass,Pass
 Warmup Convergence Information,RETAIL_2_FLR_1,RunPeriod: Chicago Ohare Intl Ap IL USA TMY3 WMO#=725300,0.2546727475,0.4009188796,Pass,Pass,0.1759533412,0.3713911631,Pass,Pass
 Warmup Convergence Information,ROOM_1_FLR_3,RunPeriod: Chicago Ohare Intl Ap IL USA TMY3 WMO#=725300,5.5557271702E-004,5.4430974221E-004,Pass,Pass,3.4865111014E-002,3.5078700590E-002,Pass,Pass
 Warmup Convergence Information,ROOM_1_FLR_6,RunPeriod: Chicago Ohare Intl Ap IL USA TMY3 WMO#=725300,5.7443764759E-004,6.6570594961E-004,Pass,Pass,5.3706535153E-002,4.4826930794E-002,Pass,Pass
 Warmup Convergence Information,ROOM_2_FLR_3,RunPeriod: Chicago Ohare Intl Ap IL USA TMY3 WMO#=725300,5.4612021722E-004,6.0950744950E-004,Pass,Pass,3.5377924974E-002,3.7810027307E-002,Pass,Pass
 Warmup Convergence Information,ROOM_2_FLR_6,RunPeriod: Chicago Ohare Intl Ap IL USA TMY3 WMO#=725300,4.6772184455E-004,5.2027870034E-004,Pass,Pass,5.5250698826E-002,4.7884436673E-002,Pass,Pass
 Warmup Convergence Information,ROOM_3_MULT19_FLR_3,RunPeriod: Chicago Ohare Intl Ap IL USA TMY3 WMO#=725300,3.8791697071E-004,3.6029055596E-004,Pass,Pass,3.7248151957E-002,4.9426723306E-002,Pass,Pass
 Warmup Convergence Information,ROOM_3_MULT9_FLR_6,RunPeriod: Chicago Ohare Intl Ap IL USA TMY3 WMO#=725300,4.0123864603E-004,4.2871513753E-004,Pass,Pass,4.2554012105E-002,4.3985740429E-002,Pass,Pass
 Warmup Convergence Information,ROOM_4_MULT19_FLR_3,RunPeriod: Chicago Ohare Intl Ap IL USA TMY3 WMO#=725300,2.9829041014E-004,2.8555436451E-004,Pass,Pass,3.7976766680E-002,5.5463805105E-002,Pass,Pass
 Warmup Convergence Information,ROOM_5_FLR_3,RunPeriod: Chicago Ohare Intl Ap IL USA TMY3 WMO#=725300,5.7799510468E-004,5.1714626805E-004,Pass,Pass,3.1117827973E-002,4.1905785802E-002,Pass,Pass
 Warmup Convergence Information,ROOM_6_FLR_3,RunPeriod: Chicago Ohare Intl Ap IL USA TMY3 WMO#=725300,5.8352503563E-004,5.5053817058E-004,Pass,Pass,3.2230253189E-002,4.4388596874E-002,Pass,Pass
 Warmup Convergence Information,STORAGE_FLR_1,RunPeriod: Chicago Ohare Intl Ap IL USA TMY3 WMO#=725300,5.9881876776E-002,7.4039801196E-002,Pass,Pass,0.1682596417,0.3723786801,Pass,Pass
