Program Version,EnergyPlus, Version 8.4.0-09f5359d8a, YMD=2018.01.10 16:16,IDD_Version 8.4.0
   ************* Beginning Zone Sizing Calculations
   ** Warning ** Weather file location will be used rather than entered (IDF) Location object.
   **   ~~~   ** ..Location object=USA NY-NEWYORK-CENTRALPARK
   **   ~~~   ** ..Weather File Location=Chicago Ohare Intl Ap IL USA TMY3 WMO#=725300
   **   ~~~   ** ..due to location differences, Latitude difference=[1.20] degrees, Longitude difference=[13.96] degrees.
   **   ~~~   ** ..Time Zone difference=[1.0] hour(s), Elevation difference=[390.24] percent, [160.00] meters.
   ** Warning ** CheckUsedConstructions: There are 2 nominally unused constructions in input.
   **   ~~~   ** For explicit details on each unused construction, use Output:Diagnostics,DisplayExtraWarnings;
   ** Warning ** Calculated design heating load for zone=MECH_FLR_1 is zero.
   **   ~~~   ** Check Sizing:Zone and ZoneControl:Thermostat inputs.
   ** Warning ** Calculated design heating load for zone=STORAGE_FLR_1 is zero.
   **   ~~~   ** Check Sizing:Zone and ZoneControl:Thermostat inputs.
   ************* Beginning System Sizing Calculations
   ************* Beginning Plant Sizing Calculations
   ** Warning ** The design coil load is zero for Coil:Heating:Water MECH_FLR_1 VAV BOX REHEAT COIL
   **   ~~~   ** The autosize value for maximum water flow rate is zero
   **   ~~~   ** To change this, input a value for UA, change the heating design day, or raise the
   **   ~~~   **   system heating design supply air temperature. Also check to make sure the Preheat
   **   ~~~   **   Design Temperature is not the same as the Central Heating Design Supply Air Temperature. 
   ** Warning ** The design coil load is zero for Coil:Heating:Water STORAGE_FLR_1 VAV BOX REHEAT COIL
   **   ~~~   ** The autosize value for maximum water flow rate is zero
   **   ~~~   ** To change this, input a value for UA, change the heating design day, or raise the
   **   ~~~   **   system heating design supply air temperature. Also check to make sure the Preheat
   **   ~~~   **   Design Temperature is not the same as the Central Heating Design Supply Air Temperature. 
   ** Warning ** In calculating the design coil UA for Coil:Cooling:Water FLR_3_DOAS_COOLC
   **   ~~~   ** no apparatus dew-point can be found for the initial entering and leaving conditions;
   **   ~~~   ** the coil outlet design conditions will be changed to correct the problem.
   **   ~~~   ** The initial design conditions are: Tair,in = 30.6986
   **   ~~~   **                                    Wair,in = 1.878286E-002
   **   ~~~   **                                    Twater,in = 6.6700
   **   ~~~   **                                    Tair,out = 12.8200
   **   ~~~   **                                    Wair,out = 8.489894E-003
   **   ~~~   ** The revised design conditions are: Tair,out = 12.8197
   **   ~~~   **                                    Wair,out = 8.490011E-003
   ** Warning ** In calculating the design coil UA for Coil:Cooling:Water FLR_6_DOAS_COOLC
   **   ~~~   ** no apparatus dew-point can be found for the initial entering and leaving conditions;
   **   ~~~   ** the coil outlet design conditions will be changed to correct the problem.
   **   ~~~   ** The initial design conditions are: Tair,in = 30.1647
   **   ~~~   **                                    Wair,in = 1.878287E-002
   **   ~~~   **                                    Twater,in = 6.6700
   **   ~~~   **                                    Tair,out = 12.8200
   **   ~~~   **                                    Wair,out = 8.489894E-003
   **   ~~~   ** The revised design conditions are: Tair,out = 12.8197
   **   ~~~   **                                    Wair,out = 8.490011E-003
   ** Warning ** In calculating the design coil UA for Coil:Cooling:Water VAV WITH REHEAT_COOLC
   **   ~~~   ** no apparatus dew-point can be found for the initial entering and leaving conditions;
   **   ~~~   ** the coil outlet design conditions will be changed to correct the problem.
   **   ~~~   ** The initial design conditions are: Tair,in = 26.3707
   **   ~~~   **                                    Wair,in = 1.362253E-002
   **   ~~~   **                                    Twater,in = 6.6700
   **   ~~~   **                                    Tair,out = 12.8000
   **   ~~~   **                                    Wair,out = 8.478624E-003
   **   ~~~   ** The revised design conditions are: Tair,out = 12.7997
   **   ~~~   **                                    Wair,out = 8.478742E-003
   ************* Testing Individual Branch Integrity
   ************* All Branches passed integrity testing
   ************* Testing Individual Supply Air Path Integrity
   ************* All Supply Air Paths passed integrity testing
   ************* Testing Individual Return Air Path Integrity
   ************* All Return Air Paths passed integrity testing
   ************* No node connection errors were found.
   ************* Beginning Simulation
   ** Severe  ** ExternalInterface: Socket communication received error value " 1" at time = 24.00 hours.
   **   ~~~   ** ExternalInterface: Flag from server " 1".
   **  Fatal  ** Error in ExternalInterface: Check EnergyPlus *.err file.
   ...Summary of Errors that led to program termination:
   ..... Reference severe error count=1
   ..... Last severe error=ExternalInterface: Socket communication received error value " 1" at time = 24.00 hours.
   *************
   ************* ===== Final Error Summary =====
   ************* The following error categories occurred.  Consider correcting or noting.
   ************* Nominally Unused Constructions
   ************* ..The nominally unused constructions warning is provided to alert you to potential conditions that can cause
   ************* ..extra time during simulation. Each construction is calculated by the algorithm indicated in the HeatBalanceAlgorithm
   ************* ..object. You may remove the constructions indicated (when you use the DisplayExtraWarnings option).
   *************
   ************* EnergyPlus Warmup Error Summary. During Warmup: 0 Warning; 0 Severe Errors.
   ************* EnergyPlus Sizing Error Summary. During Sizing: 4 Warning; 0 Severe Errors.
   ************* EnergyPlus Terminated--Fatal Error Detected. 9 Warning; 1 Severe Errors; Elapsed Time=00hr 03min 50.46sec
